         972
 
O            1.31517   4.48250   7.64983
Si           2.24125   4.48250   0.00000
O            4.48250   1.31517   7.64983
Si           4.48250   2.24125   0.00000
O            7.64983   4.48250   7.64983
Si           6.72375   4.48250   0.00000
O            4.48250   7.64983   7.64983
Si           4.48250   6.72375   0.00000
O            1.31517   4.48250   1.31517
O            4.48250   1.31517   1.31517
O            7.64983   4.48250   1.31517
O            4.48250   7.64983   1.31517
O            7.64983   1.31517   4.48250
Si           0.00000   2.24125   4.48250
O            7.64983   7.64983   4.48250
Si           6.72375   0.00000   4.48250
O            1.31517   7.64983   4.48250
Si           0.00000   6.72375   4.48250
O            1.31517   1.31517   4.48250
Si           2.24125   0.00000   4.48250
Si           4.48250   0.00000   2.24125
Si           4.48250   0.00000   6.72375
Si           0.00000   4.48250   6.72375
Si           0.00000   4.48250   2.24125
O            5.79767   0.00000   3.16733
O            0.00000   5.79767   3.16733
O            3.16733   0.00000   3.16733
O            0.00000   3.16733   3.16733
O            5.79767   0.00000   5.79767
O            0.00000   5.79767   5.79767
O            3.16733   0.00000   5.79767
O            0.00000   3.16733   5.79767
O            3.16733   5.79767   0.00000
O            3.16733   3.16733   0.00000
O            5.79767   3.16733   0.00000
O            5.79767   5.79767   0.00000
O            1.31517   4.48250  16.61483
Si           2.24125   4.48250   8.96500
O            4.48250   1.31517  16.61483
Si           4.48250   2.24125   8.96500
O            7.64983   4.48250  16.61483
Si           6.72375   4.48250   8.96500
O            4.48250   7.64983  16.61483
Si           4.48250   6.72375   8.96500
O            1.31517   4.48250  10.28017
O            4.48250   1.31517  10.28017
O            7.64983   4.48250  10.28017
O            4.48250   7.64983  10.28017
O            7.64983   1.31517  13.44750
Si           0.00000   2.24125  13.44750
O            7.64983   7.64983  13.44750
Si           6.72375   0.00000  13.44750
O            1.31517   7.64983  13.44750
Si           0.00000   6.72375  13.44750
O            1.31517   1.31517  13.44750
Si           2.24125   0.00000  13.44750
Si           4.48250   0.00000  11.20625
Si           4.48250   0.00000  15.68875
Si           0.00000   4.48250  15.68875
Si           0.00000   4.48250  11.20625
O            5.79767   0.00000  12.13233
O            0.00000   5.79767  12.13233
O            3.16733   0.00000  12.13233
O            0.00000   3.16733  12.13233
O            5.79767   0.00000  14.76267
O            0.00000   5.79767  14.76267
O            3.16733   0.00000  14.76267
O            0.00000   3.16733  14.76267
O            3.16733   5.79767   8.96500
O            3.16733   3.16733   8.96500
O            5.79767   3.16733   8.96500
O            5.79767   5.79767   8.96500
O            1.31517   4.48250  25.57983
Si           2.24125   4.48250  17.93000
O            4.48250   1.31517  25.57983
Si           4.48250   2.24125  17.93000
O            7.64983   4.48250  25.57983
Si           6.72375   4.48250  17.93000
O            4.48250   7.64983  25.57983
Si           4.48250   6.72375  17.93000
O            1.31517   4.48250  19.24517
O            4.48250   1.31517  19.24517
O            7.64983   4.48250  19.24517
O            4.48250   7.64983  19.24517
O            7.64983   1.31517  22.41250
Si           0.00000   2.24125  22.41250
O            7.64983   7.64983  22.41250
Si           6.72375   0.00000  22.41250
O            1.31517   7.64983  22.41250
Si           0.00000   6.72375  22.41250
O            1.31517   1.31517  22.41250
Si           2.24125   0.00000  22.41250
Si           4.48250   0.00000  20.17125
Si           4.48250   0.00000  24.65375
Si           0.00000   4.48250  24.65375
Si           0.00000   4.48250  20.17125
O            5.79767   0.00000  21.09733
O            0.00000   5.79767  21.09733
O            3.16733   0.00000  21.09733
O            0.00000   3.16733  21.09733
O            5.79767   0.00000  23.72767
O            0.00000   5.79767  23.72767
O            3.16733   0.00000  23.72767
O            0.00000   3.16733  23.72767
O            3.16733   5.79767  17.93000
O            3.16733   3.16733  17.93000
O            5.79767   3.16733  17.93000
O            5.79767   5.79767  17.93000
O            1.31517  13.44750   7.64983
Si           2.24125  13.44750   0.00000
O            4.48250  10.28017   7.64983
Si           4.48250  11.20625   0.00000
O            7.64983  13.44750   7.64983
Si           6.72375  13.44750   0.00000
O            4.48250  16.61483   7.64983
Si           4.48250  15.68875   0.00000
O            1.31517  13.44750   1.31517
O            4.48250  10.28017   1.31517
O            7.64983  13.44750   1.31517
O            4.48250  16.61483   1.31517
O            7.64983  10.28017   4.48250
Si           0.00000  11.20625   4.48250
O            7.64983  16.61483   4.48250
Si           6.72375   8.96500   4.48250
O            1.31517  16.61483   4.48250
Si           0.00000  15.68875   4.48250
O            1.31517  10.28017   4.48250
Si           2.24125   8.96500   4.48250
Si           4.48250   8.96500   2.24125
Si           4.48250   8.96500   6.72375
Si           0.00000  13.44750   6.72375
Si           0.00000  13.44750   2.24125
O            5.79767   8.96500   3.16733
O            0.00000  14.76267   3.16733
O            3.16733   8.96500   3.16733
O            0.00000  12.13233   3.16733
O            5.79767   8.96500   5.79767
O            0.00000  14.76267   5.79767
O            3.16733   8.96500   5.79767
O            0.00000  12.13233   5.79767
O            3.16733  14.76267   0.00000
O            3.16733  12.13233   0.00000
O            5.79767  12.13233   0.00000
O            5.79767  14.76267   0.00000
O            1.31517  13.44750  16.61483
Si           2.24125  13.44750   8.96500
O            4.48250  10.28017  16.61483
Si           4.48250  11.20625   8.96500
O            7.64983  13.44750  16.61483
Si           6.72375  13.44750   8.96500
O            4.48250  16.61483  16.61483
Si           4.48250  15.68875   8.96500
O            1.31517  13.44750  10.28017
O            4.48250  10.28017  10.28017
O            7.64983  13.44750  10.28017
O            4.48250  16.61483  10.28017
O            7.64983  10.28017  13.44750
Si           0.00000  11.20625  13.44750
O            7.64983  16.61483  13.44750
Si           6.72375   8.96500  13.44750
O            1.31517  16.61483  13.44750
Si           0.00000  15.68875  13.44750
O            1.31517  10.28017  13.44750
Si           2.24125   8.96500  13.44750
Si           4.48250   8.96500  11.20625
Si           4.48250   8.96500  15.68875
Si           0.00000  13.44750  15.68875
Si           0.00000  13.44750  11.20625
O            5.79767   8.96500  12.13233
O            0.00000  14.76267  12.13233
O            3.16733   8.96500  12.13233
O            0.00000  12.13233  12.13233
O            5.79767   8.96500  14.76267
O            0.00000  14.76267  14.76267
O            3.16733   8.96500  14.76267
O            0.00000  12.13233  14.76267
O            3.16733  14.76267   8.96500
O            3.16733  12.13233   8.96500
O            5.79767  12.13233   8.96500
O            5.79767  14.76267   8.96500
O            1.31517  13.44750  25.57983
Si           2.24125  13.44750  17.93000
O            4.48250  10.28017  25.57983
Si           4.48250  11.20625  17.93000
O            7.64983  13.44750  25.57983
Si           6.72375  13.44750  17.93000
O            4.48250  16.61483  25.57983
Si           4.48250  15.68875  17.93000
O            1.31517  13.44750  19.24517
O            4.48250  10.28017  19.24517
O            7.64983  13.44750  19.24517
O            4.48250  16.61483  19.24517
O            7.64983  10.28017  22.41250
Si           0.00000  11.20625  22.41250
O            7.64983  16.61483  22.41250
Si           6.72375   8.96500  22.41250
O            1.31517  16.61483  22.41250
Si           0.00000  15.68875  22.41250
O            1.31517  10.28017  22.41250
Si           2.24125   8.96500  22.41250
Si           4.48250   8.96500  20.17125
Si           4.48250   8.96500  24.65375
Si           0.00000  13.44750  24.65375
Si           0.00000  13.44750  20.17125
O            5.79767   8.96500  21.09733
O            0.00000  14.76267  21.09733
O            3.16733   8.96500  21.09733
O            0.00000  12.13233  21.09733
O            5.79767   8.96500  23.72767
O            0.00000  14.76267  23.72767
O            3.16733   8.96500  23.72767
O            0.00000  12.13233  23.72767
O            3.16733  14.76267  17.93000
O            3.16733  12.13233  17.93000
O            5.79767  12.13233  17.93000
O            5.79767  14.76267  17.93000
O            1.31517  22.41250   7.64983
Si           2.24125  22.41250   0.00000
O            4.48250  19.24517   7.64983
Si           4.48250  20.17125   0.00000
O            7.64983  22.41250   7.64983
Si           6.72375  22.41250   0.00000
O            4.48250  25.57983   7.64983
Si           4.48250  24.65375   0.00000
O            1.31517  22.41250   1.31517
O            4.48250  19.24517   1.31517
O            7.64983  22.41250   1.31517
O            4.48250  25.57983   1.31517
O            7.64983  19.24517   4.48250
Si           0.00000  20.17125   4.48250
O            7.64983  25.57983   4.48250
Si           6.72375  17.93000   4.48250
O            1.31517  25.57983   4.48250
Si           0.00000  24.65375   4.48250
O            1.31517  19.24517   4.48250
Si           2.24125  17.93000   4.48250
Si           4.48250  17.93000   2.24125
Si           4.48250  17.93000   6.72375
Si           0.00000  22.41250   6.72375
Si           0.00000  22.41250   2.24125
O            5.79767  17.93000   3.16733
O            0.00000  23.72767   3.16733
O            3.16733  17.93000   3.16733
O            0.00000  21.09733   3.16733
O            5.79767  17.93000   5.79767
O            0.00000  23.72767   5.79767
O            3.16733  17.93000   5.79767
O            0.00000  21.09733   5.79767
O            3.16733  23.72767   0.00000
O            3.16733  21.09733   0.00000
O            5.79767  21.09733   0.00000
O            5.79767  23.72767   0.00000
O            1.31517  22.41250  16.61483
Si           2.24125  22.41250   8.96500
O            4.48250  19.24517  16.61483
Si           4.48250  20.17125   8.96500
O            7.64983  22.41250  16.61483
Si           6.72375  22.41250   8.96500
O            4.48250  25.57983  16.61483
Si           4.48250  24.65375   8.96500
O            1.31517  22.41250  10.28017
O            4.48250  19.24517  10.28017
O            7.64983  22.41250  10.28017
O            4.48250  25.57983  10.28017
O            7.64983  19.24517  13.44750
Si           0.00000  20.17125  13.44750
O            7.64983  25.57983  13.44750
Si           6.72375  17.93000  13.44750
O            1.31517  25.57983  13.44750
Si           0.00000  24.65375  13.44750
O            1.31517  19.24517  13.44750
Si           2.24125  17.93000  13.44750
Si           4.48250  17.93000  11.20625
Si           4.48250  17.93000  15.68875
Si           0.00000  22.41250  15.68875
Si           0.00000  22.41250  11.20625
O            5.79767  17.93000  12.13233
O            0.00000  23.72767  12.13233
O            3.16733  17.93000  12.13233
O            0.00000  21.09733  12.13233
O            5.79767  17.93000  14.76267
O            0.00000  23.72767  14.76267
O            3.16733  17.93000  14.76267
O            0.00000  21.09733  14.76267
O            3.16733  23.72767   8.96500
O            3.16733  21.09733   8.96500
O            5.79767  21.09733   8.96500
O            5.79767  23.72767   8.96500
O            1.31517  22.41250  25.57983
Si           2.24125  22.41250  17.93000
O            4.48250  19.24517  25.57983
Si           4.48250  20.17125  17.93000
O            7.64983  22.41250  25.57983
Si           6.72375  22.41250  17.93000
O            4.48250  25.57983  25.57983
Si           4.48250  24.65375  17.93000
O            1.31517  22.41250  19.24517
O            4.48250  19.24517  19.24517
O            7.64983  22.41250  19.24517
O            4.48250  25.57983  19.24517
O            7.64983  19.24517  22.41250
Si           0.00000  20.17125  22.41250
O            7.64983  25.57983  22.41250
Si           6.72375  17.93000  22.41250
O            1.31517  25.57983  22.41250
Si           0.00000  24.65375  22.41250
O            1.31517  19.24517  22.41250
Si           2.24125  17.93000  22.41250
Si           4.48250  17.93000  20.17125
Si           4.48250  17.93000  24.65375
Si           0.00000  22.41250  24.65375
Si           0.00000  22.41250  20.17125
O            5.79767  17.93000  21.09733
O            0.00000  23.72767  21.09733
O            3.16733  17.93000  21.09733
O            0.00000  21.09733  21.09733
O            5.79767  17.93000  23.72767
O            0.00000  23.72767  23.72767
O            3.16733  17.93000  23.72767
O            0.00000  21.09733  23.72767
O            3.16733  23.72767  17.93000
O            3.16733  21.09733  17.93000
O            5.79767  21.09733  17.93000
O            5.79767  23.72767  17.93000
O           10.28017   4.48250   7.64983
Si          11.20625   4.48250   0.00000
O           13.44750   1.31517   7.64983
Si          13.44750   2.24125   0.00000
O           16.61483   4.48250   7.64983
Si          15.68875   4.48250   0.00000
O           13.44750   7.64983   7.64983
Si          13.44750   6.72375   0.00000
O           10.28017   4.48250   1.31517
O           13.44750   1.31517   1.31517
O           16.61483   4.48250   1.31517
O           13.44750   7.64983   1.31517
O           16.61483   1.31517   4.48250
Si           8.96500   2.24125   4.48250
O           16.61483   7.64983   4.48250
Si          15.68875   0.00000   4.48250
O           10.28017   7.64983   4.48250
Si           8.96500   6.72375   4.48250
O           10.28017   1.31517   4.48250
Si          11.20625   0.00000   4.48250
Si          13.44750   0.00000   2.24125
Si          13.44750   0.00000   6.72375
Si           8.96500   4.48250   6.72375
Si           8.96500   4.48250   2.24125
O           14.76267   0.00000   3.16733
O            8.96500   5.79767   3.16733
O           12.13233   0.00000   3.16733
O            8.96500   3.16733   3.16733
O           14.76267   0.00000   5.79767
O            8.96500   5.79767   5.79767
O           12.13233   0.00000   5.79767
O            8.96500   3.16733   5.79767
O           12.13233   5.79767   0.00000
O           12.13233   3.16733   0.00000
O           14.76267   3.16733   0.00000
O           14.76267   5.79767   0.00000
O           10.28017   4.48250  16.61483
Si          11.20625   4.48250   8.96500
O           13.44750   1.31517  16.61483
Si          13.44750   2.24125   8.96500
O           16.61483   4.48250  16.61483
Si          15.68875   4.48250   8.96500
O           13.44750   7.64983  16.61483
Si          13.44750   6.72375   8.96500
O           10.28017   4.48250  10.28017
O           13.44750   1.31517  10.28017
O           16.61483   4.48250  10.28017
O           13.44750   7.64983  10.28017
O           16.61483   1.31517  13.44750
Si           8.96500   2.24125  13.44750
O           16.61483   7.64983  13.44750
Si          15.68875   0.00000  13.44750
O           10.28017   7.64983  13.44750
Si           8.96500   6.72375  13.44750
O           10.28017   1.31517  13.44750
Si          11.20625   0.00000  13.44750
Si          13.44750   0.00000  11.20625
Si          13.44750   0.00000  15.68875
Si           8.96500   4.48250  15.68875
Si           8.96500   4.48250  11.20625
O           14.76267   0.00000  12.13233
O            8.96500   5.79767  12.13233
O           12.13233   0.00000  12.13233
O            8.96500   3.16733  12.13233
O           14.76267   0.00000  14.76267
O            8.96500   5.79767  14.76267
O           12.13233   0.00000  14.76267
O            8.96500   3.16733  14.76267
O           12.13233   5.79767   8.96500
O           12.13233   3.16733   8.96500
O           14.76267   3.16733   8.96500
O           14.76267   5.79767   8.96500
O           10.28017   4.48250  25.57983
Si          11.20625   4.48250  17.93000
O           13.44750   1.31517  25.57983
Si          13.44750   2.24125  17.93000
O           16.61483   4.48250  25.57983
Si          15.68875   4.48250  17.93000
O           13.44750   7.64983  25.57983
Si          13.44750   6.72375  17.93000
O           10.28017   4.48250  19.24517
O           13.44750   1.31517  19.24517
O           16.61483   4.48250  19.24517
O           13.44750   7.64983  19.24517
O           16.61483   1.31517  22.41250
Si           8.96500   2.24125  22.41250
O           16.61483   7.64983  22.41250
Si          15.68875   0.00000  22.41250
O           10.28017   7.64983  22.41250
Si           8.96500   6.72375  22.41250
O           10.28017   1.31517  22.41250
Si          11.20625   0.00000  22.41250
Si          13.44750   0.00000  20.17125
Si          13.44750   0.00000  24.65375
Si           8.96500   4.48250  24.65375
Si           8.96500   4.48250  20.17125
O           14.76267   0.00000  21.09733
O            8.96500   5.79767  21.09733
O           12.13233   0.00000  21.09733
O            8.96500   3.16733  21.09733
O           14.76267   0.00000  23.72767
O            8.96500   5.79767  23.72767
O           12.13233   0.00000  23.72767
O            8.96500   3.16733  23.72767
O           12.13233   5.79767  17.93000
O           12.13233   3.16733  17.93000
O           14.76267   3.16733  17.93000
O           14.76267   5.79767  17.93000
O           10.28017  13.44750   7.64983
Si          11.20625  13.44750   0.00000
O           13.44750  10.28017   7.64983
Si          13.44750  11.20625   0.00000
O           16.61483  13.44750   7.64983
Si          15.68875  13.44750   0.00000
O           13.44750  16.61483   7.64983
Si          13.44750  15.68875   0.00000
O           10.28017  13.44750   1.31517
O           13.44750  10.28017   1.31517
O           16.61483  13.44750   1.31517
O           13.44750  16.61483   1.31517
O           16.61483  10.28017   4.48250
Si           8.96500  11.20625   4.48250
O           16.61483  16.61483   4.48250
Si          15.68875   8.96500   4.48250
O           10.28017  16.61483   4.48250
Si           8.96500  15.68875   4.48250
O           10.28017  10.28017   4.48250
Si          11.20625   8.96500   4.48250
Si          13.44750   8.96500   2.24125
Si          13.44750   8.96500   6.72375
Si           8.96500  13.44750   6.72375
Si           8.96500  13.44750   2.24125
O           14.76267   8.96500   3.16733
O            8.96500  14.76267   3.16733
O           12.13233   8.96500   3.16733
O            8.96500  12.13233   3.16733
O           14.76267   8.96500   5.79767
O            8.96500  14.76267   5.79767
O           12.13233   8.96500   5.79767
O            8.96500  12.13233   5.79767
O           12.13233  14.76267   0.00000
O           12.13233  12.13233   0.00000
O           14.76267  12.13233   0.00000
O           14.76267  14.76267   0.00000
O           10.28017  13.44750  16.61483
Si          11.20625  13.44750   8.96500
O           13.44750  10.28017  16.61483
Si          13.44750  11.20625   8.96500
O           16.61483  13.44750  16.61483
Si          15.68875  13.44750   8.96500
O           13.44750  16.61483  16.61483
Si          13.44750  15.68875   8.96500
O           10.28017  13.44750  10.28017
O           13.44750  10.28017  10.28017
O           16.61483  13.44750  10.28017
O           13.44750  16.61483  10.28017
O           16.61483  10.28017  13.44750
Si           8.96500  11.20625  13.44750
O           16.61483  16.61483  13.44750
Si          15.68875   8.96500  13.44750
O           10.28017  16.61483  13.44750
Si           8.96500  15.68875  13.44750
O           10.28017  10.28017  13.44750
Si          11.20625   8.96500  13.44750
Si          13.44750   8.96500  11.20625
Si          13.44750   8.96500  15.68875
Si           8.96500  13.44750  15.68875
Si           8.96500  13.44750  11.20625
O           14.76267   8.96500  12.13233
O            8.96500  14.76267  12.13233
O           12.13233   8.96500  12.13233
O            8.96500  12.13233  12.13233
O           14.76267   8.96500  14.76267
O            8.96500  14.76267  14.76267
O           12.13233   8.96500  14.76267
O            8.96500  12.13233  14.76267
O           12.13233  14.76267   8.96500
O           12.13233  12.13233   8.96500
O           14.76267  12.13233   8.96500
O           14.76267  14.76267   8.96500
O           10.28017  13.44750  25.57983
Si          11.20625  13.44750  17.93000
O           13.44750  10.28017  25.57983
Si          13.44750  11.20625  17.93000
O           16.61483  13.44750  25.57983
Si          15.68875  13.44750  17.93000
O           13.44750  16.61483  25.57983
Si          13.44750  15.68875  17.93000
O           10.28017  13.44750  19.24517
O           13.44750  10.28017  19.24517
O           16.61483  13.44750  19.24517
O           13.44750  16.61483  19.24517
O           16.61483  10.28017  22.41250
Si           8.96500  11.20625  22.41250
O           16.61483  16.61483  22.41250
Si          15.68875   8.96500  22.41250
O           10.28017  16.61483  22.41250
Si           8.96500  15.68875  22.41250
O           10.28017  10.28017  22.41250
Si          11.20625   8.96500  22.41250
Si          13.44750   8.96500  20.17125
Si          13.44750   8.96500  24.65375
Si           8.96500  13.44750  24.65375
Si           8.96500  13.44750  20.17125
O           14.76267   8.96500  21.09733
O            8.96500  14.76267  21.09733
O           12.13233   8.96500  21.09733
O            8.96500  12.13233  21.09733
O           14.76267   8.96500  23.72767
O            8.96500  14.76267  23.72767
O           12.13233   8.96500  23.72767
O            8.96500  12.13233  23.72767
O           12.13233  14.76267  17.93000
O           12.13233  12.13233  17.93000
O           14.76267  12.13233  17.93000
O           14.76267  14.76267  17.93000
O           10.28017  22.41250   7.64983
Si          11.20625  22.41250   0.00000
O           13.44750  19.24517   7.64983
Si          13.44750  20.17125   0.00000
O           16.61483  22.41250   7.64983
Si          15.68875  22.41250   0.00000
O           13.44750  25.57983   7.64983
Si          13.44750  24.65375   0.00000
O           10.28017  22.41250   1.31517
O           13.44750  19.24517   1.31517
O           16.61483  22.41250   1.31517
O           13.44750  25.57983   1.31517
O           16.61483  19.24517   4.48250
Si           8.96500  20.17125   4.48250
O           16.61483  25.57983   4.48250
Si          15.68875  17.93000   4.48250
O           10.28017  25.57983   4.48250
Si           8.96500  24.65375   4.48250
O           10.28017  19.24517   4.48250
Si          11.20625  17.93000   4.48250
Si          13.44750  17.93000   2.24125
Si          13.44750  17.93000   6.72375
Si           8.96500  22.41250   6.72375
Si           8.96500  22.41250   2.24125
O           14.76267  17.93000   3.16733
O            8.96500  23.72767   3.16733
O           12.13233  17.93000   3.16733
O            8.96500  21.09733   3.16733
O           14.76267  17.93000   5.79767
O            8.96500  23.72767   5.79767
O           12.13233  17.93000   5.79767
O            8.96500  21.09733   5.79767
O           12.13233  23.72767   0.00000
O           12.13233  21.09733   0.00000
O           14.76267  21.09733   0.00000
O           14.76267  23.72767   0.00000
O           10.28017  22.41250  16.61483
Si          11.20625  22.41250   8.96500
O           13.44750  19.24517  16.61483
Si          13.44750  20.17125   8.96500
O           16.61483  22.41250  16.61483
Si          15.68875  22.41250   8.96500
O           13.44750  25.57983  16.61483
Si          13.44750  24.65375   8.96500
O           10.28017  22.41250  10.28017
O           13.44750  19.24517  10.28017
O           16.61483  22.41250  10.28017
O           13.44750  25.57983  10.28017
O           16.61483  19.24517  13.44750
Si           8.96500  20.17125  13.44750
O           16.61483  25.57983  13.44750
Si          15.68875  17.93000  13.44750
O           10.28017  25.57983  13.44750
Si           8.96500  24.65375  13.44750
O           10.28017  19.24517  13.44750
Si          11.20625  17.93000  13.44750
Si          13.44750  17.93000  11.20625
Si          13.44750  17.93000  15.68875
Si           8.96500  22.41250  15.68875
Si           8.96500  22.41250  11.20625
O           14.76267  17.93000  12.13233
O            8.96500  23.72767  12.13233
O           12.13233  17.93000  12.13233
O            8.96500  21.09733  12.13233
O           14.76267  17.93000  14.76267
O            8.96500  23.72767  14.76267
O           12.13233  17.93000  14.76267
O            8.96500  21.09733  14.76267
O           12.13233  23.72767   8.96500
O           12.13233  21.09733   8.96500
O           14.76267  21.09733   8.96500
O           14.76267  23.72767   8.96500
O           10.28017  22.41250  25.57983
Si          11.20625  22.41250  17.93000
O           13.44750  19.24517  25.57983
Si          13.44750  20.17125  17.93000
O           16.61483  22.41250  25.57983
Si          15.68875  22.41250  17.93000
O           13.44750  25.57983  25.57983
Si          13.44750  24.65375  17.93000
O           10.28017  22.41250  19.24517
O           13.44750  19.24517  19.24517
O           16.61483  22.41250  19.24517
O           13.44750  25.57983  19.24517
O           16.61483  19.24517  22.41250
Si           8.96500  20.17125  22.41250
O           16.61483  25.57983  22.41250
Si          15.68875  17.93000  22.41250
O           10.28017  25.57983  22.41250
Si           8.96500  24.65375  22.41250
O           10.28017  19.24517  22.41250
Si          11.20625  17.93000  22.41250
Si          13.44750  17.93000  20.17125
Si          13.44750  17.93000  24.65375
Si           8.96500  22.41250  24.65375
Si           8.96500  22.41250  20.17125
O           14.76267  17.93000  21.09733
O            8.96500  23.72767  21.09733
O           12.13233  17.93000  21.09733
O            8.96500  21.09733  21.09733
O           14.76267  17.93000  23.72767
O            8.96500  23.72767  23.72767
O           12.13233  17.93000  23.72767
O            8.96500  21.09733  23.72767
O           12.13233  23.72767  17.93000
O           12.13233  21.09733  17.93000
O           14.76267  21.09733  17.93000
O           14.76267  23.72767  17.93000
O           19.24517   4.48250   7.64983
Si          20.17125   4.48250   0.00000
O           22.41250   1.31517   7.64983
Si          22.41250   2.24125   0.00000
O           25.57983   4.48250   7.64983
Si          24.65375   4.48250   0.00000
O           22.41250   7.64983   7.64983
Si          22.41250   6.72375   0.00000
O           19.24517   4.48250   1.31517
O           22.41250   1.31517   1.31517
O           25.57983   4.48250   1.31517
O           22.41250   7.64983   1.31517
O           25.57983   1.31517   4.48250
Si          17.93000   2.24125   4.48250
O           25.57983   7.64983   4.48250
Si          24.65375   0.00000   4.48250
O           19.24517   7.64983   4.48250
Si          17.93000   6.72375   4.48250
O           19.24517   1.31517   4.48250
Si          20.17125   0.00000   4.48250
Si          22.41250   0.00000   2.24125
Si          22.41250   0.00000   6.72375
Si          17.93000   4.48250   6.72375
Si          17.93000   4.48250   2.24125
O           23.72767   0.00000   3.16733
O           17.93000   5.79767   3.16733
O           21.09733   0.00000   3.16733
O           17.93000   3.16733   3.16733
O           23.72767   0.00000   5.79767
O           17.93000   5.79767   5.79767
O           21.09733   0.00000   5.79767
O           17.93000   3.16733   5.79767
O           21.09733   5.79767   0.00000
O           21.09733   3.16733   0.00000
O           23.72767   3.16733   0.00000
O           23.72767   5.79767   0.00000
O           19.24517   4.48250  16.61483
Si          20.17125   4.48250   8.96500
O           22.41250   1.31517  16.61483
Si          22.41250   2.24125   8.96500
O           25.57983   4.48250  16.61483
Si          24.65375   4.48250   8.96500
O           22.41250   7.64983  16.61483
Si          22.41250   6.72375   8.96500
O           19.24517   4.48250  10.28017
O           22.41250   1.31517  10.28017
O           25.57983   4.48250  10.28017
O           22.41250   7.64983  10.28017
O           25.57983   1.31517  13.44750
Si          17.93000   2.24125  13.44750
O           25.57983   7.64983  13.44750
Si          24.65375   0.00000  13.44750
O           19.24517   7.64983  13.44750
Si          17.93000   6.72375  13.44750
O           19.24517   1.31517  13.44750
Si          20.17125   0.00000  13.44750
Si          22.41250   0.00000  11.20625
Si          22.41250   0.00000  15.68875
Si          17.93000   4.48250  15.68875
Si          17.93000   4.48250  11.20625
O           23.72767   0.00000  12.13233
O           17.93000   5.79767  12.13233
O           21.09733   0.00000  12.13233
O           17.93000   3.16733  12.13233
O           23.72767   0.00000  14.76267
O           17.93000   5.79767  14.76267
O           21.09733   0.00000  14.76267
O           17.93000   3.16733  14.76267
O           21.09733   5.79767   8.96500
O           21.09733   3.16733   8.96500
O           23.72767   3.16733   8.96500
O           23.72767   5.79767   8.96500
O           19.24517   4.48250  25.57983
Si          20.17125   4.48250  17.93000
O           22.41250   1.31517  25.57983
Si          22.41250   2.24125  17.93000
O           25.57983   4.48250  25.57983
Si          24.65375   4.48250  17.93000
O           22.41250   7.64983  25.57983
Si          22.41250   6.72375  17.93000
O           19.24517   4.48250  19.24517
O           22.41250   1.31517  19.24517
O           25.57983   4.48250  19.24517
O           22.41250   7.64983  19.24517
O           25.57983   1.31517  22.41250
Si          17.93000   2.24125  22.41250
O           25.57983   7.64983  22.41250
Si          24.65375   0.00000  22.41250
O           19.24517   7.64983  22.41250
Si          17.93000   6.72375  22.41250
O           19.24517   1.31517  22.41250
Si          20.17125   0.00000  22.41250
Si          22.41250   0.00000  20.17125
Si          22.41250   0.00000  24.65375
Si          17.93000   4.48250  24.65375
Si          17.93000   4.48250  20.17125
O           23.72767   0.00000  21.09733
O           17.93000   5.79767  21.09733
O           21.09733   0.00000  21.09733
O           17.93000   3.16733  21.09733
O           23.72767   0.00000  23.72767
O           17.93000   5.79767  23.72767
O           21.09733   0.00000  23.72767
O           17.93000   3.16733  23.72767
O           21.09733   5.79767  17.93000
O           21.09733   3.16733  17.93000
O           23.72767   3.16733  17.93000
O           23.72767   5.79767  17.93000
O           19.24517  13.44750   7.64983
Si          20.17125  13.44750   0.00000
O           22.41250  10.28017   7.64983
Si          22.41250  11.20625   0.00000
O           25.57983  13.44750   7.64983
Si          24.65375  13.44750   0.00000
O           22.41250  16.61483   7.64983
Si          22.41250  15.68875   0.00000
O           19.24517  13.44750   1.31517
O           22.41250  10.28017   1.31517
O           25.57983  13.44750   1.31517
O           22.41250  16.61483   1.31517
O           25.57983  10.28017   4.48250
Si          17.93000  11.20625   4.48250
O           25.57983  16.61483   4.48250
Si          24.65375   8.96500   4.48250
O           19.24517  16.61483   4.48250
Si          17.93000  15.68875   4.48250
O           19.24517  10.28017   4.48250
Si          20.17125   8.96500   4.48250
Si          22.41250   8.96500   2.24125
Si          22.41250   8.96500   6.72375
Si          17.93000  13.44750   6.72375
Si          17.93000  13.44750   2.24125
O           23.72767   8.96500   3.16733
O           17.93000  14.76267   3.16733
O           21.09733   8.96500   3.16733
O           17.93000  12.13233   3.16733
O           23.72767   8.96500   5.79767
O           17.93000  14.76267   5.79767
O           21.09733   8.96500   5.79767
O           17.93000  12.13233   5.79767
O           21.09733  14.76267   0.00000
O           21.09733  12.13233   0.00000
O           23.72767  12.13233   0.00000
O           23.72767  14.76267   0.00000
O           19.24517  13.44750  16.61483
Si          20.17125  13.44750   8.96500
O           22.41250  10.28017  16.61483
Si          22.41250  11.20625   8.96500
O           25.57983  13.44750  16.61483
Si          24.65375  13.44750   8.96500
O           22.41250  16.61483  16.61483
Si          22.41250  15.68875   8.96500
O           19.24517  13.44750  10.28017
O           22.41250  10.28017  10.28017
O           25.57983  13.44750  10.28017
O           22.41250  16.61483  10.28017
O           25.57983  10.28017  13.44750
Si          17.93000  11.20625  13.44750
O           25.57983  16.61483  13.44750
Si          24.65375   8.96500  13.44750
O           19.24517  16.61483  13.44750
Si          17.93000  15.68875  13.44750
O           19.24517  10.28017  13.44750
Si          20.17125   8.96500  13.44750
Si          22.41250   8.96500  11.20625
Si          22.41250   8.96500  15.68875
Si          17.93000  13.44750  15.68875
Si          17.93000  13.44750  11.20625
O           23.72767   8.96500  12.13233
O           17.93000  14.76267  12.13233
O           21.09733   8.96500  12.13233
O           17.93000  12.13233  12.13233
O           23.72767   8.96500  14.76267
O           17.93000  14.76267  14.76267
O           21.09733   8.96500  14.76267
O           17.93000  12.13233  14.76267
O           21.09733  14.76267   8.96500
O           21.09733  12.13233   8.96500
O           23.72767  12.13233   8.96500
O           23.72767  14.76267   8.96500
O           19.24517  13.44750  25.57983
Si          20.17125  13.44750  17.93000
O           22.41250  10.28017  25.57983
Si          22.41250  11.20625  17.93000
O           25.57983  13.44750  25.57983
Si          24.65375  13.44750  17.93000
O           22.41250  16.61483  25.57983
Si          22.41250  15.68875  17.93000
O           19.24517  13.44750  19.24517
O           22.41250  10.28017  19.24517
O           25.57983  13.44750  19.24517
O           22.41250  16.61483  19.24517
O           25.57983  10.28017  22.41250
Si          17.93000  11.20625  22.41250
O           25.57983  16.61483  22.41250
Si          24.65375   8.96500  22.41250
O           19.24517  16.61483  22.41250
Si          17.93000  15.68875  22.41250
O           19.24517  10.28017  22.41250
Si          20.17125   8.96500  22.41250
Si          22.41250   8.96500  20.17125
Si          22.41250   8.96500  24.65375
Si          17.93000  13.44750  24.65375
Si          17.93000  13.44750  20.17125
O           23.72767   8.96500  21.09733
O           17.93000  14.76267  21.09733
O           21.09733   8.96500  21.09733
O           17.93000  12.13233  21.09733
O           23.72767   8.96500  23.72767
O           17.93000  14.76267  23.72767
O           21.09733   8.96500  23.72767
O           17.93000  12.13233  23.72767
O           21.09733  14.76267  17.93000
O           21.09733  12.13233  17.93000
O           23.72767  12.13233  17.93000
O           23.72767  14.76267  17.93000
O           19.24517  22.41250   7.64983
Si          20.17125  22.41250   0.00000
O           22.41250  19.24517   7.64983
Si          22.41250  20.17125   0.00000
O           25.57983  22.41250   7.64983
Si          24.65375  22.41250   0.00000
O           22.41250  25.57983   7.64983
Si          22.41250  24.65375   0.00000
O           19.24517  22.41250   1.31517
O           22.41250  19.24517   1.31517
O           25.57983  22.41250   1.31517
O           22.41250  25.57983   1.31517
O           25.57983  19.24517   4.48250
Si          17.93000  20.17125   4.48250
O           25.57983  25.57983   4.48250
Si          24.65375  17.93000   4.48250
O           19.24517  25.57983   4.48250
Si          17.93000  24.65375   4.48250
O           19.24517  19.24517   4.48250
Si          20.17125  17.93000   4.48250
Si          22.41250  17.93000   2.24125
Si          22.41250  17.93000   6.72375
Si          17.93000  22.41250   6.72375
Si          17.93000  22.41250   2.24125
O           23.72767  17.93000   3.16733
O           17.93000  23.72767   3.16733
O           21.09733  17.93000   3.16733
O           17.93000  21.09733   3.16733
O           23.72767  17.93000   5.79767
O           17.93000  23.72767   5.79767
O           21.09733  17.93000   5.79767
O           17.93000  21.09733   5.79767
O           21.09733  23.72767   0.00000
O           21.09733  21.09733   0.00000
O           23.72767  21.09733   0.00000
O           23.72767  23.72767   0.00000
O           19.24517  22.41250  16.61483
Si          20.17125  22.41250   8.96500
O           22.41250  19.24517  16.61483
Si          22.41250  20.17125   8.96500
O           25.57983  22.41250  16.61483
Si          24.65375  22.41250   8.96500
O           22.41250  25.57983  16.61483
Si          22.41250  24.65375   8.96500
O           19.24517  22.41250  10.28017
O           22.41250  19.24517  10.28017
O           25.57983  22.41250  10.28017
O           22.41250  25.57983  10.28017
O           25.57983  19.24517  13.44750
Si          17.93000  20.17125  13.44750
O           25.57983  25.57983  13.44750
Si          24.65375  17.93000  13.44750
O           19.24517  25.57983  13.44750
Si          17.93000  24.65375  13.44750
O           19.24517  19.24517  13.44750
Si          20.17125  17.93000  13.44750
Si          22.41250  17.93000  11.20625
Si          22.41250  17.93000  15.68875
Si          17.93000  22.41250  15.68875
Si          17.93000  22.41250  11.20625
O           23.72767  17.93000  12.13233
O           17.93000  23.72767  12.13233
O           21.09733  17.93000  12.13233
O           17.93000  21.09733  12.13233
O           23.72767  17.93000  14.76267
O           17.93000  23.72767  14.76267
O           21.09733  17.93000  14.76267
O           17.93000  21.09733  14.76267
O           21.09733  23.72767   8.96500
O           21.09733  21.09733   8.96500
O           23.72767  21.09733   8.96500
O           23.72767  23.72767   8.96500
O           19.24517  22.41250  25.57983
Si          20.17125  22.41250  17.93000
O           22.41250  19.24517  25.57983
Si          22.41250  20.17125  17.93000
O           25.57983  22.41250  25.57983
Si          24.65375  22.41250  17.93000
O           22.41250  25.57983  25.57983
Si          22.41250  24.65375  17.93000
O           19.24517  22.41250  19.24517
O           22.41250  19.24517  19.24517
O           25.57983  22.41250  19.24517
O           22.41250  25.57983  19.24517
O           25.57983  19.24517  22.41250
Si          17.93000  20.17125  22.41250
O           25.57983  25.57983  22.41250
Si          24.65375  17.93000  22.41250
O           19.24517  25.57983  22.41250
Si          17.93000  24.65375  22.41250
O           19.24517  19.24517  22.41250
Si          20.17125  17.93000  22.41250
Si          22.41250  17.93000  20.17125
Si          22.41250  17.93000  24.65375
Si          17.93000  22.41250  24.65375
Si          17.93000  22.41250  20.17125
O           23.72767  17.93000  21.09733
O           17.93000  23.72767  21.09733
O           21.09733  17.93000  21.09733
O           17.93000  21.09733  21.09733
O           23.72767  17.93000  23.72767
O           17.93000  23.72767  23.72767
O           21.09733  17.93000  23.72767
O           17.93000  21.09733  23.72767
O           21.09733  23.72767  17.93000
O           21.09733  21.09733  17.93000
O           23.72767  21.09733  17.93000
O           23.72767  23.72767  17.93000
