816
zeolite
O          2.10576        8.63122        0.00000
O          0.00000        8.91679        1.53089
O          1.68674        6.94715        1.97880
O          2.36465        9.43723        2.50673
O          2.63420        4.53980        2.35442
O          1.74546        5.22571        0.00000
O          0.00000        4.94280        1.93749
O          1.87891        1.87891        6.45400
O          0.00000        1.86022        4.60945
O          2.46339        2.46339        3.95888
O          2.21519        2.21519        1.32952
O          2.30593       12.03407        2.12466
O          0.00000        1.86823        0.00000
O          0.00000       13.34450        4.32934
O          0.00000       11.80721        6.45400
Si         1.54796        8.47910        1.50378
Si         1.50793        5.39652        1.58252
Si         0.00000       11.81789        4.84695
Si         1.54796        1.54796        4.91408
Si         2.97582        2.97582        2.52222
Si         2.47140       10.87310        3.22700
Si         1.57732        1.57732        0.00000
O         18.05778        2.10576        0.00000
O         17.77221        0.00000        1.53089
O         19.74185        1.68674        1.97880
O         17.25177        2.36465        2.50673
O         22.14920        2.63420        2.35442
O         21.46329        1.74546        0.00000
O         21.74620        0.00000        1.93749
O         24.81009        1.87891        6.45400
O         24.82878        0.00000        4.60945
O         24.22561        2.46339        3.95888
O         24.47381        2.21519        1.32952
O         14.65493        2.30593        2.12466
O         24.82077        0.00000        0.00000
O         13.34450        0.00000        4.32934
O         14.88179        0.00000        6.45400
Si        18.20990        1.54796        1.50378
Si        21.29248        1.50793        1.58252
Si        14.87111        0.00000        4.84695
Si        25.14104        1.54796        4.91408
Si        23.71318        2.97582        2.52222
Si        15.81590        2.47140        3.22700
Si        25.11168        1.57732        0.00000
O         24.58324       18.05778        0.00000
O          0.00000       17.77221        1.53089
O         25.00226       19.74185        1.97880
O         24.32435       17.25177        2.50673
O         24.05480       22.14920        2.35442
O         24.94354       21.46329        0.00000
O          0.00000       21.74620        1.93749
O         24.81009       24.81009        6.45400
O          0.00000       24.82878        4.60945
O         24.22561       24.22561        3.95888
O         24.47381       24.47381        1.32952
O         24.38307       14.65493        2.12466
O          0.00000       24.82077        0.00000
O          0.00000       14.88179        6.45400
Si        25.14104       18.20990        1.50378
Si        25.18107       21.29248        1.58252
Si         0.00000       14.87111        4.84695
Si        25.14104       25.14104        4.91408
Si        23.71318       23.71318        2.52222
Si        24.21760       15.81590        3.22700
Si        25.11168       25.11168        0.00000
O          8.63122       24.58324        0.00000
O          8.91679        0.00000        1.53089
O          6.94715       25.00226        1.97880
O          9.43723       24.32435        2.50673
O          4.53980       24.05480        2.35442
O          5.22571       24.94354        0.00000
O          4.94280        0.00000        1.93749
O          1.87891       24.81009        6.45400
O          1.86022        0.00000        4.60945
O          2.46339       24.22561        3.95888
O          2.21519       24.47381        1.32952
O         12.03407       24.38307        2.12466
O          1.86823        0.00000        0.00000
O         11.80721        0.00000        6.45400
Si         8.47910       25.14104        1.50378
Si         5.39652       25.18107        1.58252
Si        11.81789        0.00000        4.84695
Si         1.54796       25.14104        4.91408
Si         2.97582       23.71318        2.52222
Si        10.87310       24.21760        3.22700
Si         1.57732       25.11168        0.00000
O          2.10576       18.05778        0.00000
O          0.00000       17.77221       11.37711
O          1.68674       19.74185       10.92920
O          2.36465       17.25177       10.40127
O          2.63420       22.14920       10.55358
O          1.74546       21.46329        0.00000
O          0.00000       21.74620       10.97051
O          0.00000       24.82878        8.29855
O          2.46339       24.22561        8.94912
O          2.21519       24.47381       11.57848
O          2.30593       14.65493       10.78334
O          0.00000       13.34450        8.57866
Si         1.54796       18.20990       11.40422
Si         1.50793       21.29248       11.32548
Si         0.00000       14.87111        8.06105
Si         1.54796       25.14104        7.99392
Si         2.97582       23.71318       10.38578
Si         2.47140       15.81590        9.68100
O          8.63122        2.10576        0.00000
O          8.91679        0.00000       11.37711
O          6.94715        1.68674       10.92920
O          9.43723        2.36465       10.40127
O          4.53980        2.63420       10.55358
O          5.22571        1.74546        0.00000
O          4.94280        0.00000       10.97051
O          1.86022        0.00000        8.29855
O          2.46339        2.46339        8.94912
O          2.21519        2.21519       11.57848
O         12.03407        2.30593       10.78334
O         13.34450        0.00000        8.57866
Si         8.47910        1.54796       11.40422
Si         5.39652        1.50793       11.32548
Si        11.81789        0.00000        8.06105
Si         1.54796        1.54796        7.99392
Si         2.97582        2.97582       10.38578
Si        10.87310        2.47140        9.68100
O         24.58324        8.63122        0.00000
O          0.00000        8.91679       11.37711
O         25.00226        6.94715       10.92920
O         24.32435        9.43723       10.40127
O         24.05480        4.53980       10.55358
O         24.94354        5.22571        0.00000
O          0.00000        4.94280       10.97051
O          0.00000        1.86022        8.29855
O         24.22561        2.46339        8.94912
O         24.47381        2.21519       11.57848
O         24.38307       12.03407       10.78334
Si        25.14104        8.47910       11.40422
Si        25.18107        5.39652       11.32548
Si         0.00000       11.81789        8.06105
Si        25.14104        1.54796        7.99392
Si        23.71318        2.97582       10.38578
Si        24.21760       10.87310        9.68100
O         18.05778       24.58324        0.00000
O         17.77221        0.00000       11.37711
O         19.74185       25.00226       10.92920
O         17.25177       24.32435       10.40127
O         22.14920       24.05480       10.55358
O         21.46329       24.94354        0.00000
O         21.74620        0.00000       10.97051
O         24.82878        0.00000        8.29855
O         24.22561       24.22561        8.94912
O         24.47381       24.47381       11.57848
O         14.65493       24.38307       10.78334
Si        18.20990       25.14104       11.40422
Si        21.29248       25.18107       11.32548
Si        14.87111        0.00000        8.06105
Si        25.14104       25.14104        7.99392
Si        23.71318       23.71318       10.38578
Si        15.81590       24.21760        9.68100
O         25.00226       19.74185       10.92920
O         24.32435       17.25177       10.40127
O         24.05480       22.14920       10.55358
O         24.38307       14.65493       10.78334
Si        25.14104       18.20990       11.40422
Si        25.18107       21.29248       11.32548
Si        24.21760       15.81590        9.68100
O          6.94715       25.00226       10.92920
O          9.43723       24.32435       10.40127
O          4.53980       24.05480       10.55358
O         12.03407       24.38307       10.78334
Si         8.47910       25.14104       11.40422
Si         5.39652       25.18107       11.32548
Si        10.87310       24.21760        9.68100
O          1.68674        6.94715       10.92920
O          2.36465        9.43723       10.40127
O          2.63420        4.53980       10.55358
O          2.30593       12.03407       10.78334
Si         1.54796        8.47910       11.40422
Si         1.50793        5.39652       11.32548
Si         2.47140       10.87310        9.68100
O         19.74185        1.68674       10.92920
O         17.25177        2.36465       10.40127
O         22.14920        2.63420       10.55358
O         14.65493        2.30593       10.78334
Si        18.20990        1.54796       11.40422
Si        21.29248        1.50793       11.32548
Si        15.81590        2.47140        9.68100
O         25.00226        6.94715        1.97880
O         24.32435        9.43723        2.50673
O         24.05480        4.53980        2.35442
O         24.38307       12.03407        2.12466
Si        25.14104        8.47910        1.50378
Si        25.18107        5.39652        1.58252
Si        24.21760       10.87310        3.22700
O         19.74185       25.00226        1.97880
O         17.25177       24.32435        2.50673
O         22.14920       24.05480        2.35442
O         14.65493       24.38307        2.12466
Si        18.20990       25.14104        1.50378
Si        21.29248       25.18107        1.58252
Si        15.81590       24.21760        3.22700
O          1.68674       19.74185        1.97880
O          2.36465       17.25177        2.50673
O          2.63420       22.14920        2.35442
O          2.30593       14.65493        2.12466
Si         1.54796       18.20990        1.50378
Si         1.50793       21.29248        1.58252
Si         2.47140       15.81590        3.22700
O          6.94715        1.68674        1.97880
O          9.43723        2.36465        2.50673
O          4.53980        2.63420        2.35442
O         12.03407        2.30593        2.12466
Si         8.47910        1.54796        1.50378
Si         5.39652        1.50793        1.58252
Si        10.87310        2.47140        3.22700
O         15.45026       21.97572        6.45400
O         13.34450       22.26129        7.98489
O         15.03124       20.29165        8.43280
O         15.70915       22.78173        8.96073
O         15.97870       17.88430        8.80842
O         15.08996       18.57021        6.45400
O         13.34450       18.28730        8.39149
O         15.22341       15.22341        0.00000
O         13.34450       15.20472       11.06345
O         15.80789       15.80789       10.41288
O         15.55969       15.55969        7.78352
O         15.65043       25.37857        8.57866
O         13.34450       15.21273        6.45400
O         13.34450        0.00000       10.78334
O         13.34450       25.15171        0.00000
Si        14.89246       21.82360        7.95778
Si        14.85243       18.74102        8.03652
Si        13.34450       25.16239       11.30095
Si        14.89246       14.89246       11.36808
Si        16.32032       16.32032        8.97622
Si        14.92182       14.92182        6.45400
O          4.71328       15.45026        6.45400
O          4.42771       13.34450        7.98489
O          6.39735       15.03124        8.43280
O          3.90727       15.70915        8.96073
O          8.80470       15.97870        8.80842
O          8.11879       15.08996        6.45400
O          8.40170       13.34450        8.39149
O         11.46559       15.22341        0.00000
O         11.48428       13.34450       11.06345
O         10.88111       15.80789       10.41288
O         11.12931       15.55969        7.78352
O          1.31043       15.65043        8.57866
O         11.47627       13.34450        6.45400
O          0.00000       13.34450       10.78334
O          1.53729       13.34450        0.00000
Si         4.86540       14.89246        7.95778
Si         7.94798       14.85243        8.03652
Si         1.52661       13.34450       11.30095
Si        11.79654       14.89246       11.36808
Si        10.36868       16.32032        8.97622
Si        11.76718       14.92182        6.45400
O         11.23874        4.71328        6.45400
O         13.34450        4.42771        7.98489
O         11.65776        6.39735        8.43280
O         10.97985        3.90727        8.96073
O         10.71030        8.80470        8.80842
O         11.59904        8.11879        6.45400
O         13.34450        8.40170        8.39149
O         11.46559       11.46559        0.00000
O         13.34450       11.48428       11.06345
O         10.88111       10.88111       10.41288
O         11.12931       11.12931        7.78352
O         11.03857        1.31043        8.57866
O         13.34450       11.47627        6.45400
O         13.34450        1.53729        0.00000
Si        11.79654        4.86540        7.95778
Si        11.83657        7.94798        8.03652
Si        13.34450        1.52661       11.30095
Si        11.79654       11.79654       11.36808
Si        10.36868       10.36868        8.97622
Si        11.76718       11.76718        6.45400
O         21.97572       11.23874        6.45400
O         22.26129       13.34450        7.98489
O         20.29165       11.65776        8.43280
O         22.78173       10.97985        8.96073
O         17.88430       10.71030        8.80842
O         18.57021       11.59904        6.45400
O         18.28730       13.34450        8.39149
O         15.22341       11.46559        0.00000
O         15.20472       13.34450       11.06345
O         15.80789       10.88111       10.41288
O         15.55969       11.12931        7.78352
O         25.37857       11.03857        8.57866
O         15.21273       13.34450        6.45400
O         25.15171       13.34450        0.00000
Si        21.82360       11.79654        7.95778
Si        18.74102       11.83657        8.03652
Si        25.16239       13.34450       11.30095
Si        14.89246       11.79654       11.36808
Si        16.32032       10.36868        8.97622
Si        14.92182       11.76718        6.45400
O         15.45026        4.71328        6.45400
O         13.34450        4.42771        4.92311
O         15.03124        6.39735        4.47520
O         15.70915        3.90727        3.94727
O         15.97870        8.80470        4.09958
O         15.08996        8.11879        6.45400
O         13.34450        8.40170        4.51651
O         13.34450       11.48428        1.84455
O         15.80789       10.88111        2.49512
O         15.55969       11.12931        5.12448
O         15.65043        1.31043        4.32934
O         13.34450        0.00000        2.12466
Si        14.89246        4.86540        4.95022
Si        14.85243        7.94798        4.87148
Si        13.34450        1.52661        1.60705
Si        14.89246       11.79654        1.53992
Si        16.32032       10.36868        3.93178
O         21.97572       15.45026        6.45400
O         22.26129       13.34450        4.92311
O         20.29165       15.03124        4.47520
O         22.78173       15.70915        3.94727
O         17.88430       15.97870        4.09958
O         18.57021       15.08996        6.45400
O         18.28730       13.34450        4.51651
O         15.20472       13.34450        1.84455
O         15.80789       15.80789        2.49512
O         15.55969       15.55969        5.12448
O         25.37857       15.65043        4.32934
O          0.00000       13.34450        2.12466
Si        21.82360       14.89246        4.95022
Si        18.74102       14.85243        4.87148
Si        25.16239       13.34450        1.60705
Si        14.89246       14.89246        1.53992
Si        16.32032       16.32032        3.93178
O         11.23874       21.97572        6.45400
O         13.34450       22.26129        4.92311
O         11.65776       20.29165        4.47520
O         10.97985       22.78173        3.94727
O         10.71030       17.88430        4.09958
O         11.59904       18.57021        6.45400
O         13.34450       18.28730        4.51651
O         13.34450       15.20472        1.84455
O         10.88111       15.80789        2.49512
O         11.12931       15.55969        5.12448
O         11.03857       25.37857        4.32934
Si        11.79654       21.82360        4.95022
Si        11.83657       18.74102        4.87148
Si        13.34450       25.16239        1.60705
Si        11.79654       14.89246        1.53992
Si        10.36868       16.32032        3.93178
O          4.71328       11.23874        6.45400
O          4.42771       13.34450        4.92311
O          6.39735       11.65776        4.47520
O          3.90727       10.97985        3.94727
O          8.80470       10.71030        4.09958
O          8.11879       11.59904        6.45400
O          8.40170       13.34450        4.51651
O         11.48428       13.34450        1.84455
O         10.88111       10.88111        2.49512
O         11.12931       11.12931        5.12448
O          1.31043       11.03857        4.32934
Si         4.86540       11.79654        4.95022
Si         7.94798       11.83657        4.87148
Si         1.52661       13.34450        1.60705
Si        11.79654       11.79654        1.53992
Si        10.36868       10.36868        3.93178
O         11.65776        6.39735        4.47520
O         10.97985        3.90727        3.94727
O         10.71030        8.80470        4.09958
O         11.03857        1.31043        4.32934
Si        11.79654        4.86540        4.95022
Si        11.83657        7.94798        4.87148
O         20.29165       11.65776        4.47520
O         22.78173       10.97985        3.94727
O         17.88430       10.71030        4.09958
O         25.37857       11.03857        4.32934
Si        21.82360       11.79654        4.95022
Si        18.74102       11.83657        4.87148
O         15.03124       20.29165        4.47520
O         15.70915       22.78173        3.94727
O         15.97870       17.88430        4.09958
O         15.65043       25.37857        4.32934
Si        14.89246       21.82360        4.95022
Si        14.85243       18.74102        4.87148
O          6.39735       15.03124        4.47520
O          3.90727       15.70915        3.94727
O          8.80470       15.97870        4.09958
O          1.31043       15.65043        4.32934
Si         4.86540       14.89246        4.95022
Si         7.94798       14.85243        4.87148
O         11.65776       20.29165        8.43280
O         10.97985       22.78173        8.96073
O         10.71030       17.88430        8.80842
O         11.03857       25.37857        8.57866
Si        11.79654       21.82360        7.95778
Si        11.83657       18.74102        8.03652
O          6.39735       11.65776        8.43280
O          3.90727       10.97985        8.96073
O          8.80470       10.71030        8.80842
O          1.31043       11.03857        8.57866
Si         4.86540       11.79654        7.95778
Si         7.94798       11.83657        8.03652
O         15.03124        6.39735        8.43280
O         15.70915        3.90727        8.96073
O         15.97870        8.80470        8.80842
O         15.65043        1.31043        8.57866
Si        14.89246        4.86540        7.95778
Si        14.85243        7.94798        8.03652
O         20.29165       15.03124        8.43280
O         22.78173       15.70915        8.96073
O         17.88430       15.97870        8.80842
O         25.37857       15.65043        8.57866
Si        21.82360       14.89246        7.95778
Si        18.74102       14.85243        8.03652
O          2.10576        8.63122       12.90800
O          0.00000        8.91679       14.43889
O          1.68674        6.94715       14.88680
O          2.36465        9.43723       15.41473
O          2.63420        4.53980       15.26242
O          1.74546        5.22571       12.90800
O          0.00000        4.94280       14.84549
O          1.87891        1.87891       19.36200
O          0.00000        1.86022       17.51745
O          2.46339        2.46339       16.86688
O          2.21519        2.21519       14.23752
O          2.30593       12.03407       15.03266
O          0.00000        1.86823       12.90800
O          0.00000       13.34450       17.23734
O          0.00000       11.80721       19.36200
Si         1.54796        8.47910       14.41178
Si         1.50793        5.39652       14.49052
Si         0.00000       11.81789       17.75495
Si         1.54796        1.54796       17.82208
Si         2.97582        2.97582       15.43022
Si         2.47140       10.87310       16.13500
Si         1.57732        1.57732       12.90800
O         18.05778        2.10576       12.90800
O         17.77221        0.00000       14.43889
O         19.74185        1.68674       14.88680
O         17.25177        2.36465       15.41473
O         22.14920        2.63420       15.26242
O         21.46329        1.74546       12.90800
O         21.74620        0.00000       14.84549
O         24.81009        1.87891       19.36200
O         24.82878        0.00000       17.51745
O         24.22561        2.46339       16.86688
O         24.47381        2.21519       14.23752
O         14.65493        2.30593       15.03266
O         24.82077        0.00000       12.90800
O         13.34450        0.00000       17.23734
O         14.88179        0.00000       19.36200
Si        18.20990        1.54796       14.41178
Si        21.29248        1.50793       14.49052
Si        14.87111        0.00000       17.75495
Si        25.14104        1.54796       17.82208
Si        23.71318        2.97582       15.43022
Si        15.81590        2.47140       16.13500
Si        25.11168        1.57732       12.90800
O         24.58324       18.05778       12.90800
O          0.00000       17.77221       14.43889
O         25.00226       19.74185       14.88680
O         24.32435       17.25177       15.41473
O         24.05480       22.14920       15.26242
O         24.94354       21.46329       12.90800
O          0.00000       21.74620       14.84549
O         24.81009       24.81009       19.36200
O          0.00000       24.82878       17.51745
O         24.22561       24.22561       16.86688
O         24.47381       24.47381       14.23752
O         24.38307       14.65493       15.03266
O          0.00000       24.82077       12.90800
O          0.00000       14.88179       19.36200
Si        25.14104       18.20990       14.41178
Si        25.18107       21.29248       14.49052
Si         0.00000       14.87111       17.75495
Si        25.14104       25.14104       17.82208
Si        23.71318       23.71318       15.43022
Si        24.21760       15.81590       16.13500
Si        25.11168       25.11168       12.90800
O          8.63122       24.58324       12.90800
O          8.91679        0.00000       14.43889
O          6.94715       25.00226       14.88680
O          9.43723       24.32435       15.41473
O          4.53980       24.05480       15.26242
O          5.22571       24.94354       12.90800
O          4.94280        0.00000       14.84549
O          1.87891       24.81009       19.36200
O          1.86022        0.00000       17.51745
O          2.46339       24.22561       16.86688
O          2.21519       24.47381       14.23752
O         12.03407       24.38307       15.03266
O          1.86823        0.00000       12.90800
O         11.80721        0.00000       19.36200
Si         8.47910       25.14104       14.41178
Si         5.39652       25.18107       14.49052
Si        11.81789        0.00000       17.75495
Si         1.54796       25.14104       17.82208
Si         2.97582       23.71318       15.43022
Si        10.87310       24.21760       16.13500
Si         1.57732       25.11168       12.90800
O          2.10576       18.05778       12.90800
O          0.00000       17.77221       24.28511
O          1.68674       19.74185       23.83720
O          2.36465       17.25177       23.30927
O          2.63420       22.14920       23.46158
O          1.74546       21.46329       12.90800
O          0.00000       21.74620       23.87851
O          0.00000       24.82878       21.20655
O          2.46339       24.22561       21.85712
O          2.21519       24.47381       24.48648
O          2.30593       14.65493       23.69134
O          0.00000       13.34450       21.48666
Si         1.54796       18.20990       24.31222
Si         1.50793       21.29248       24.23348
Si         0.00000       14.87111       20.96905
Si         1.54796       25.14104       20.90192
Si         2.97582       23.71318       23.29378
Si         2.47140       15.81590       22.58900
O          8.63122        2.10576       12.90800
O          8.91679        0.00000       24.28511
O          6.94715        1.68674       23.83720
O          9.43723        2.36465       23.30927
O          4.53980        2.63420       23.46158
O          5.22571        1.74546       12.90800
O          4.94280        0.00000       23.87851
O          1.86022        0.00000       21.20655
O          2.46339        2.46339       21.85712
O          2.21519        2.21519       24.48648
O         12.03407        2.30593       23.69134
O         13.34450        0.00000       21.48666
Si         8.47910        1.54796       24.31222
Si         5.39652        1.50793       24.23348
Si        11.81789        0.00000       20.96905
Si         1.54796        1.54796       20.90192
Si         2.97582        2.97582       23.29378
Si        10.87310        2.47140       22.58900
O         24.58324        8.63122       12.90800
O          0.00000        8.91679       24.28511
O         25.00226        6.94715       23.83720
O         24.32435        9.43723       23.30927
O         24.05480        4.53980       23.46158
O         24.94354        5.22571       12.90800
O          0.00000        4.94280       23.87851
O          0.00000        1.86022       21.20655
O         24.22561        2.46339       21.85712
O         24.47381        2.21519       24.48648
O         24.38307       12.03407       23.69134
Si        25.14104        8.47910       24.31222
Si        25.18107        5.39652       24.23348
Si         0.00000       11.81789       20.96905
Si        25.14104        1.54796       20.90192
Si        23.71318        2.97582       23.29378
Si        24.21760       10.87310       22.58900
O         18.05778       24.58324       12.90800
O         17.77221        0.00000       24.28511
O         19.74185       25.00226       23.83720
O         17.25177       24.32435       23.30927
O         22.14920       24.05480       23.46158
O         21.46329       24.94354       12.90800
O         21.74620        0.00000       23.87851
O         24.82878        0.00000       21.20655
O         24.22561       24.22561       21.85712
O         24.47381       24.47381       24.48648
O         14.65493       24.38307       23.69134
Si        18.20990       25.14104       24.31222
Si        21.29248       25.18107       24.23348
Si        14.87111        0.00000       20.96905
Si        25.14104       25.14104       20.90192
Si        23.71318       23.71318       23.29378
Si        15.81590       24.21760       22.58900
O         25.00226       19.74185       23.83720
O         24.32435       17.25177       23.30927
O         24.05480       22.14920       23.46158
O         24.38307       14.65493       23.69134
Si        25.14104       18.20990       24.31222
Si        25.18107       21.29248       24.23348
Si        24.21760       15.81590       22.58900
O          6.94715       25.00226       23.83720
O          9.43723       24.32435       23.30927
O          4.53980       24.05480       23.46158
O         12.03407       24.38307       23.69134
Si         8.47910       25.14104       24.31222
Si         5.39652       25.18107       24.23348
Si        10.87310       24.21760       22.58900
O          1.68674        6.94715       23.83720
O          2.36465        9.43723       23.30927
O          2.63420        4.53980       23.46158
O          2.30593       12.03407       23.69134
Si         1.54796        8.47910       24.31222
Si         1.50793        5.39652       24.23348
Si         2.47140       10.87310       22.58900
O         19.74185        1.68674       23.83720
O         17.25177        2.36465       23.30927
O         22.14920        2.63420       23.46158
O         14.65493        2.30593       23.69134
Si        18.20990        1.54796       24.31222
Si        21.29248        1.50793       24.23348
Si        15.81590        2.47140       22.58900
O         25.00226        6.94715       14.88680
O         24.32435        9.43723       15.41473
O         24.05480        4.53980       15.26242
O         24.38307       12.03407       15.03266
Si        25.14104        8.47910       14.41178
Si        25.18107        5.39652       14.49052
Si        24.21760       10.87310       16.13500
O         19.74185       25.00226       14.88680
O         17.25177       24.32435       15.41473
O         22.14920       24.05480       15.26242
O         14.65493       24.38307       15.03266
Si        18.20990       25.14104       14.41178
Si        21.29248       25.18107       14.49052
Si        15.81590       24.21760       16.13500
O          1.68674       19.74185       14.88680
O          2.36465       17.25177       15.41473
O          2.63420       22.14920       15.26242
O          2.30593       14.65493       15.03266
Si         1.54796       18.20990       14.41178
Si         1.50793       21.29248       14.49052
Si         2.47140       15.81590       16.13500
O          6.94715        1.68674       14.88680
O          9.43723        2.36465       15.41473
O          4.53980        2.63420       15.26242
O         12.03407        2.30593       15.03266
Si         8.47910        1.54796       14.41178
Si         5.39652        1.50793       14.49052
Si        10.87310        2.47140       16.13500
O         15.45026       21.97572       19.36200
O         13.34450       22.26129       20.89289
O         15.03124       20.29165       21.34080
O         15.70915       22.78173       21.86873
O         15.97870       17.88430       21.71642
O         15.08996       18.57021       19.36200
O         13.34450       18.28730       21.29949
O         15.22341       15.22341       12.90800
O         13.34450       15.20472       23.97145
O         15.80789       15.80789       23.32088
O         15.55969       15.55969       20.69152
O         15.65043       25.37857       21.48666
O         13.34450       15.21273       19.36200
O         13.34450        0.00000       23.69134
O         13.34450       25.15171       12.90800
Si        14.89246       21.82360       20.86578
Si        14.85243       18.74102       20.94452
Si        13.34450       25.16239       24.20895
Si        14.89246       14.89246       24.27608
Si        16.32032       16.32032       21.88422
Si        14.92182       14.92182       19.36200
O          4.71328       15.45026       19.36200
O          4.42771       13.34450       20.89289
O          6.39735       15.03124       21.34080
O          3.90727       15.70915       21.86873
O          8.80470       15.97870       21.71642
O          8.11879       15.08996       19.36200
O          8.40170       13.34450       21.29949
O         11.46559       15.22341       12.90800
O         11.48428       13.34450       23.97145
O         10.88111       15.80789       23.32088
O         11.12931       15.55969       20.69152
O          1.31043       15.65043       21.48666
O         11.47627       13.34450       19.36200
O          0.00000       13.34450       23.69134
O          1.53729       13.34450       12.90800
Si         4.86540       14.89246       20.86578
Si         7.94798       14.85243       20.94452
Si         1.52661       13.34450       24.20895
Si        11.79654       14.89246       24.27608
Si        10.36868       16.32032       21.88422
Si        11.76718       14.92182       19.36200
O         11.23874        4.71328       19.36200
O         13.34450        4.42771       20.89289
O         11.65776        6.39735       21.34080
O         10.97985        3.90727       21.86873
O         10.71030        8.80470       21.71642
O         11.59904        8.11879       19.36200
O         13.34450        8.40170       21.29949
O         11.46559       11.46559       12.90800
O         13.34450       11.48428       23.97145
O         10.88111       10.88111       23.32088
O         11.12931       11.12931       20.69152
O         11.03857        1.31043       21.48666
O         13.34450       11.47627       19.36200
O         13.34450        1.53729       12.90800
Si        11.79654        4.86540       20.86578
Si        11.83657        7.94798       20.94452
Si        13.34450        1.52661       24.20895
Si        11.79654       11.79654       24.27608
Si        10.36868       10.36868       21.88422
Si        11.76718       11.76718       19.36200
O         21.97572       11.23874       19.36200
O         22.26129       13.34450       20.89289
O         20.29165       11.65776       21.34080
O         22.78173       10.97985       21.86873
O         17.88430       10.71030       21.71642
O         18.57021       11.59904       19.36200
O         18.28730       13.34450       21.29949
O         15.22341       11.46559       12.90800
O         15.20472       13.34450       23.97145
O         15.80789       10.88111       23.32088
O         15.55969       11.12931       20.69152
O         25.37857       11.03857       21.48666
O         15.21273       13.34450       19.36200
O         25.15171       13.34450       12.90800
Si        21.82360       11.79654       20.86578
Si        18.74102       11.83657       20.94452
Si        25.16239       13.34450       24.20895
Si        14.89246       11.79654       24.27608
Si        16.32032       10.36868       21.88422
Si        14.92182       11.76718       19.36200
O         15.45026        4.71328       19.36200
O         13.34450        4.42771       17.83111
O         15.03124        6.39735       17.38320
O         15.70915        3.90727       16.85527
O         15.97870        8.80470       17.00758
O         15.08996        8.11879       19.36200
O         13.34450        8.40170       17.42451
O         13.34450       11.48428       14.75255
O         15.80789       10.88111       15.40312
O         15.55969       11.12931       18.03248
O         15.65043        1.31043       17.23734
O         13.34450        0.00000       15.03266
Si        14.89246        4.86540       17.85822
Si        14.85243        7.94798       17.77948
Si        13.34450        1.52661       14.51505
Si        14.89246       11.79654       14.44792
Si        16.32032       10.36868       16.83978
O         21.97572       15.45026       19.36200
O         22.26129       13.34450       17.83111
O         20.29165       15.03124       17.38320
O         22.78173       15.70915       16.85527
O         17.88430       15.97870       17.00758
O         18.57021       15.08996       19.36200
O         18.28730       13.34450       17.42451
O         15.20472       13.34450       14.75255
O         15.80789       15.80789       15.40312
O         15.55969       15.55969       18.03248
O         25.37857       15.65043       17.23734
O          0.00000       13.34450       15.03266
Si        21.82360       14.89246       17.85822
Si        18.74102       14.85243       17.77948
Si        25.16239       13.34450       14.51505
Si        14.89246       14.89246       14.44792
Si        16.32032       16.32032       16.83978
O         11.23874       21.97572       19.36200
O         13.34450       22.26129       17.83111
O         11.65776       20.29165       17.38320
O         10.97985       22.78173       16.85527
O         10.71030       17.88430       17.00758
O         11.59904       18.57021       19.36200
O         13.34450       18.28730       17.42451
O         13.34450       15.20472       14.75255
O         10.88111       15.80789       15.40312
O         11.12931       15.55969       18.03248
O         11.03857       25.37857       17.23734
Si        11.79654       21.82360       17.85822
Si        11.83657       18.74102       17.77948
Si        13.34450       25.16239       14.51505
Si        11.79654       14.89246       14.44792
Si        10.36868       16.32032       16.83978
O          4.71328       11.23874       19.36200
O          4.42771       13.34450       17.83111
O          6.39735       11.65776       17.38320
O          3.90727       10.97985       16.85527
O          8.80470       10.71030       17.00758
O          8.11879       11.59904       19.36200
O          8.40170       13.34450       17.42451
O         11.48428       13.34450       14.75255
O         10.88111       10.88111       15.40312
O         11.12931       11.12931       18.03248
O          1.31043       11.03857       17.23734
Si         4.86540       11.79654       17.85822
Si         7.94798       11.83657       17.77948
Si         1.52661       13.34450       14.51505
Si        11.79654       11.79654       14.44792
Si        10.36868       10.36868       16.83978
O         11.65776        6.39735       17.38320
O         10.97985        3.90727       16.85527
O         10.71030        8.80470       17.00758
O         11.03857        1.31043       17.23734
Si        11.79654        4.86540       17.85822
Si        11.83657        7.94798       17.77948
O         20.29165       11.65776       17.38320
O         22.78173       10.97985       16.85527
O         17.88430       10.71030       17.00758
O         25.37857       11.03857       17.23734
Si        21.82360       11.79654       17.85822
Si        18.74102       11.83657       17.77948
O         15.03124       20.29165       17.38320
O         15.70915       22.78173       16.85527
O         15.97870       17.88430       17.00758
O         15.65043       25.37857       17.23734
Si        14.89246       21.82360       17.85822
Si        14.85243       18.74102       17.77948
O          6.39735       15.03124       17.38320
O          3.90727       15.70915       16.85527
O          8.80470       15.97870       17.00758
O          1.31043       15.65043       17.23734
Si         4.86540       14.89246       17.85822
Si         7.94798       14.85243       17.77948
O         11.65776       20.29165       21.34080
O         10.97985       22.78173       21.86873
O         10.71030       17.88430       21.71642
O         11.03857       25.37857       21.48666
Si        11.79654       21.82360       20.86578
Si        11.83657       18.74102       20.94452
O          6.39735       11.65776       21.34080
O          3.90727       10.97985       21.86873
O          8.80470       10.71030       21.71642
O          1.31043       11.03857       21.48666
Si         4.86540       11.79654       20.86578
Si         7.94798       11.83657       20.94452
O         15.03124        6.39735       21.34080
O         15.70915        3.90727       21.86873
O         15.97870        8.80470       21.71642
O         15.65043        1.31043       21.48666
Si        14.89246        4.86540       20.86578
Si        14.85243        7.94798       20.94452
O         20.29165       15.03124       21.34080
O         22.78173       15.70915       21.86873
O         17.88430       15.97870       21.71642
O         25.37857       15.65043       21.48666
Si        21.82360       14.89246       20.86578
Si        18.74102       14.85243       20.94452
