784
zeolite
Si         3.69937        4.89695        2.19291
Si         0.84760        6.08086        2.19151
Si         2.89552        2.89825        0.00000
Si         4.53057        6.95307        0.00000
Si         0.00000        4.09857        0.00000
Si         1.71708        8.12331        0.00000
O          3.54899        3.55719        1.31603
O          0.00000        6.49646        3.49635
O          0.00547        5.02819        1.31463
O          1.13469        7.40148        1.31463
O          4.42940        6.03165        1.31463
O          2.24204        5.41645        2.64184
O          5.94142        7.72958        0.00000
O          1.30968        3.15800        0.00000
O          3.16894        1.31242        0.00000
O          4.59072        4.59072        3.49635
O          3.32479        8.01941        0.00000
O          1.27961        9.67087        0.00000
Si        22.44505        3.69937        2.19291
Si        21.26114        0.84760        2.19151
Si        24.44375        2.89552        0.00000
Si        20.38893        4.53057        0.00000
Si        23.24343        0.00000        0.00000
Si        19.21869        1.71708        0.00000
O         23.78481        3.54899        1.31603
O         20.84554        0.00000        3.49635
O         22.31381        0.00547        1.31463
O         19.94052        1.13469        1.31463
O         21.31035        4.42940        1.31463
O         21.92555        2.24204        2.64184
O         19.61242        5.94142        0.00000
O         24.18400        1.30968        0.00000
O         26.02958        3.16894        0.00000
O         22.75128        4.59072        3.49635
O         19.32259        3.32479        0.00000
O         17.67113        1.27961        0.00000
Si        23.64263       22.44505        2.19291
Si        26.49440       21.26114        2.19151
Si        24.44648       24.44375        0.00000
Si        22.81143       20.38893        0.00000
Si         0.00000       23.24343        0.00000
Si        25.62492       19.21869        0.00000
O         23.79301       23.78481        1.31603
O          0.00000       20.84554        3.49635
O         27.33653       22.31381        1.31463
O         26.20731       19.94052        1.31463
O         22.91260       21.31035        1.31463
O         25.09996       21.92555        2.64184
O         21.40058       19.61242        0.00000
O         26.03232       24.18400        0.00000
O         24.17306       26.02958        0.00000
O         22.75128       22.75128        3.49635
O         24.01721       19.32259        0.00000
O         26.06239       17.67113        0.00000
Si         4.89695       23.64263        2.19291
Si         6.08086       26.49440        2.19151
Si         2.89825       24.44648        0.00000
Si         6.95307       22.81143        0.00000
Si         4.09857        0.00000        0.00000
Si         8.12331       25.62492        0.00000
O          3.55719       23.79301        1.31603
O          6.49646        0.00000        3.49635
O          5.02819       27.33653        1.31463
O          7.40148       26.20731        1.31463
O          6.03165       22.91260        1.31463
O          5.41645       25.09996        2.64184
O          7.72958       21.40058        0.00000
O          3.15800       26.03232        0.00000
O          1.31242       24.17306        0.00000
O          4.59072       22.75128        3.49635
O          8.01941       24.01721        0.00000
O          9.67087       26.06239        0.00000
Si         3.69937       22.44505        4.79979
Si         0.84760       21.26114        4.80119
Si         2.89552       24.44375        6.99270
Si         4.53057       20.38893        6.99270
Si         0.00000       23.24343        6.99270
Si         1.71708       19.21869        6.99270
O          3.54899       23.78481        5.67667
O          0.00547       22.31381        5.67807
O          1.13469       19.94052        5.67807
O          4.42940       21.31035        5.67807
O          2.24204       21.92555        4.35086
O          5.94142       19.61242        6.99270
O          1.30968       24.18400        6.99270
O          3.16894       26.02958        6.99270
O          3.32479       19.32259        6.99270
O          1.27961       17.67113        6.99270
Si         4.89695        3.69937        4.79979
Si         6.08086        0.84760        4.80119
Si         2.89825        2.89552        6.99270
Si         6.95307        4.53057        6.99270
Si         4.09857        0.00000        6.99270
Si         8.12331        1.71708        6.99270
O          3.55719        3.54899        5.67667
O          5.02819        0.00547        5.67807
O          7.40148        1.13469        5.67807
O          6.03165        4.42940        5.67807
O          5.41645        2.24204        4.35086
O          7.72958        5.94142        6.99270
O          3.15800        1.30968        6.99270
O          1.31242        3.16894        6.99270
O          8.01941        3.32479        6.99270
O          9.67087        1.27961        6.99270
Si        23.64263        4.89695        4.79979
Si        26.49440        6.08086        4.80119
Si        24.44648        2.89825        6.99270
Si        22.81143        6.95307        6.99270
Si         0.00000        4.09857        6.99270
Si        25.62492        8.12331        6.99270
O         23.79301        3.55719        5.67667
O         27.33653        5.02819        5.67807
O         26.20731        7.40148        5.67807
O         22.91260        6.03165        5.67807
O         25.09996        5.41645        4.35086
O         21.40058        7.72958        6.99270
O         26.03232        3.15800        6.99270
O         24.17306        1.31242        6.99270
O         24.01721        8.01941        6.99270
O         26.06239        9.67087        6.99270
Si        22.44505       23.64263        4.79979
Si        21.26114       26.49440        4.80119
Si        24.44375       24.44648        6.99270
Si        20.38893       22.81143        6.99270
Si        23.24343        0.00000        6.99270
Si        19.21869       25.62492        6.99270
O         23.78481       23.79301        5.67667
O         22.31381       27.33653        5.67807
O         19.94052       26.20731        5.67807
O         21.31035       22.91260        5.67807
O         21.92555       25.09996        4.35086
O         19.61242       21.40058        6.99270
O         24.18400       26.03232        6.99270
O         26.02958       24.17306        6.99270
O         19.32259       24.01721        6.99270
O         17.67113       26.06239        6.99270
Si        23.64263       22.44505       11.79249
Si        26.49440       21.26114       11.79389
O         23.79301       23.78481       12.66937
O          0.00000       20.84554       10.48905
O         27.33653       22.31381       12.67077
O         26.20731       19.94052       12.67077
O         22.91260       21.31035       12.67077
O         25.09996       21.92555       11.34356
O         22.75128       22.75128       10.48905
Si         4.89695       23.64263       11.79249
Si         6.08086       26.49440       11.79389
O          3.55719       23.79301       12.66937
O          6.49646        0.00000       10.48905
O          5.02819       27.33653       12.67077
O          7.40148       26.20731       12.67077
O          6.03165       22.91260       12.67077
O          5.41645       25.09996       11.34356
O          4.59072       22.75128       10.48905
Si         3.69937        4.89695       11.79249
Si         0.84760        6.08086       11.79389
O          3.54899        3.55719       12.66937
O          0.00000        6.49646       10.48905
O          0.00547        5.02819       12.67077
O          1.13469        7.40148       12.67077
O          4.42940        6.03165       12.67077
O          2.24204        5.41645       11.34356
O          4.59072        4.59072       10.48905
Si        22.44505        3.69937       11.79249
Si        21.26114        0.84760       11.79389
O         23.78481        3.54899       12.66937
O         20.84554        0.00000       10.48905
O         22.31381        0.00547       12.67077
O         19.94052        1.13469       12.67077
O         21.31035        4.42940       12.67077
O         21.92555        2.24204       11.34356
O         22.75128        4.59072       10.48905
Si        23.64263        4.89695        9.18561
Si        26.49440        6.08086        9.18421
O         23.79301        3.55719        8.30873
O         27.33653        5.02819        8.30733
O         26.20731        7.40148        8.30733
O         22.91260        6.03165        8.30733
O         25.09996        5.41645        9.63454
Si        22.44505       23.64263        9.18561
Si        21.26114       26.49440        9.18421
O         23.78481       23.79301        8.30873
O         22.31381       27.33653        8.30733
O         19.94052       26.20731        8.30733
O         21.31035       22.91260        8.30733
O         21.92555       25.09996        9.63454
Si         3.69937       22.44505        9.18561
Si         0.84760       21.26114        9.18421
O          3.54899       23.78481        8.30873
O          0.00547       22.31381        8.30733
O          1.13469       19.94052        8.30733
O          4.42940       21.31035        8.30733
O          2.24204       21.92555        9.63454
Si         4.89695        3.69937        9.18561
Si         6.08086        0.84760        9.18421
O          3.55719        3.54899        8.30873
O          5.02819        0.00547        8.30733
O          7.40148        1.13469        8.30733
O          6.03165        4.42940        8.30733
O          5.41645        2.24204        9.63454
Si        17.37037       18.56795        9.18561
Si        14.51860       19.75186        9.18421
Si        16.56652       16.56925        6.99270
Si        18.20157       20.62407        6.99270
Si        13.67100       17.76957        6.99270
Si        15.38808       21.79431        6.99270
O         17.21999       17.22819        8.30873
O         13.67100       20.16746       10.48905
O         13.67647       18.69919        8.30733
O         14.80569       21.07248        8.30733
O         18.10040       19.70265        8.30733
O         15.91304       19.08745        9.63454
O         14.98068       16.82900        6.99270
O         16.83994       14.98342        6.99270
O         18.26172       18.26172       10.48905
O         16.99579       21.69041        6.99270
O         14.95061       23.34187        6.99270
Si         8.77405       17.37037        9.18561
Si         7.59014       14.51860        9.18421
Si        10.77275       16.56652        6.99270
Si         6.71793       18.20157        6.99270
Si         9.57243       13.67100        6.99270
Si         5.54769       15.38808        6.99270
O         10.11381       17.21999        8.30873
O          7.17454       13.67100       10.48905
O          8.64281       13.67647        8.30733
O          6.26952       14.80569        8.30733
O          7.63935       18.10040        8.30733
O          8.25455       15.91304        9.63454
O         10.51300       14.98068        6.99270
O         12.35858       16.83994        6.99270
O          9.08028       18.26172       10.48905
O          5.65159       16.99579        6.99270
O          4.00013       14.95061        6.99270
Si         9.97163        8.77405        9.18561
Si        12.82340        7.59014        9.18421
Si        10.77548       10.77275        6.99270
Si         9.14043        6.71793        6.99270
Si        13.67100        9.57243        6.99270
Si        11.95392        5.54769        6.99270
O         10.12201       10.11381        8.30873
O         13.67100        7.17454       10.48905
O         13.66553        8.64281        8.30733
O         12.53631        6.26952        8.30733
O          9.24160        7.63935        8.30733
O         11.42896        8.25455        9.63454
O         12.36132       10.51300        6.99270
O         10.50206       12.35858        6.99270
O          9.08028        9.08028       10.48905
O         10.34621        5.65159        6.99270
O         12.39139        4.00013        6.99270
Si        18.56795        9.97163        9.18561
Si        19.75186       12.82340        9.18421
Si        16.56925       10.77548        6.99270
Si        20.62407        9.14043        6.99270
Si        17.76957       13.67100        6.99270
Si        21.79431       11.95392        6.99270
O         17.22819       10.12201        8.30873
O         20.16746       13.67100       10.48905
O         18.69919       13.66553        8.30733
O         21.07248       12.53631        8.30733
O         19.70265        9.24160        8.30733
O         19.08745       11.42896        9.63454
O         16.82900       12.36132        6.99270
O         14.98342       10.50206        6.99270
O         18.26172        9.08028       10.48905
O         21.69041       10.34621        6.99270
O         23.34187       12.39139        6.99270
Si        17.37037        8.77405       11.79249
Si        14.51860        7.59014       11.79389
Si        16.56652       10.77275        0.00000
Si        18.20157        6.71793        0.00000
Si        13.67100        9.57243        0.00000
Si        15.38808        5.54769        0.00000
O         17.21999       10.11381       12.66937
O         13.67647        8.64281       12.67077
O         14.80569        6.26952       12.67077
O         18.10040        7.63935       12.67077
O         15.91304        8.25455       11.34356
O         14.98068       10.51300        0.00000
O         16.83994       12.35858        0.00000
O         16.99579        5.65159        0.00000
O         14.95061        4.00013        0.00000
Si        18.56795       17.37037       11.79249
Si        19.75186       14.51860       11.79389
Si        16.56925       16.56652        0.00000
Si        20.62407       18.20157        0.00000
Si        17.76957       13.67100        0.00000
Si        21.79431       15.38808        0.00000
O         17.22819       17.21999       12.66937
O         18.69919       13.67647       12.67077
O         21.07248       14.80569       12.67077
O         19.70265       18.10040       12.67077
O         19.08745       15.91304       11.34356
O         16.82900       14.98068        0.00000
O         14.98342       16.83994        0.00000
O         21.69041       16.99579        0.00000
O         23.34187       14.95061        0.00000
Si         9.97163       18.56795       11.79249
Si        12.82340       19.75186       11.79389
Si        10.77548       16.56925        0.00000
Si         9.14043       20.62407        0.00000
Si        13.67100       17.76957        0.00000
Si        11.95392       21.79431        0.00000
O         10.12201       17.22819       12.66937
O         13.66553       18.69919       12.67077
O         12.53631       21.07248       12.67077
O          9.24160       19.70265       12.67077
O         11.42896       19.08745       11.34356
O         12.36132       16.82900        0.00000
O         10.50206       14.98342        0.00000
O         10.34621       21.69041        0.00000
O         12.39139       23.34187        0.00000
Si         8.77405        9.97163       11.79249
Si         7.59014       12.82340       11.79389
Si        10.77275       10.77548        0.00000
Si         6.71793        9.14043        0.00000
Si         9.57243       13.67100        0.00000
Si         5.54769       11.95392        0.00000
O         10.11381       10.12201       12.66937
O          8.64281       13.66553       12.67077
O          6.26952       12.53631       12.67077
O          7.63935        9.24160       12.67077
O          8.25455       11.42896       11.34356
O         10.51300       12.36132        0.00000
O         12.35858       10.50206        0.00000
O          5.65159       10.34621        0.00000
O          4.00013       12.39139        0.00000
Si         9.97163        8.77405        4.79979
Si        12.82340        7.59014        4.80119
O         10.12201       10.11381        5.67667
O         13.67100        7.17454        3.49635
O         13.66553        8.64281        5.67807
O         12.53631        6.26952        5.67807
O          9.24160        7.63935        5.67807
O         11.42896        8.25455        4.35086
O          9.08028        9.08028        3.49635
Si        18.56795        9.97163        4.79979
Si        19.75186       12.82340        4.80119
O         17.22819       10.12201        5.67667
O         20.16746       13.67100        3.49635
O         18.69919       13.66553        5.67807
O         21.07248       12.53631        5.67807
O         19.70265        9.24160        5.67807
O         19.08745       11.42896        4.35086
O         18.26172        9.08028        3.49635
Si        17.37037       18.56795        4.79979
Si        14.51860       19.75186        4.80119
O         17.21999       17.22819        5.67667
O         13.67100       20.16746        3.49635
O         13.67647       18.69919        5.67807
O         14.80569       21.07248        5.67807
O         18.10040       19.70265        5.67807
O         15.91304       19.08745        4.35086
O         18.26172       18.26172        3.49635
Si         8.77405       17.37037        4.79979
Si         7.59014       14.51860        4.80119
O         10.11381       17.21999        5.67667
O          7.17454       13.67100        3.49635
O          8.64281       13.67647        5.67807
O          6.26952       14.80569        5.67807
O          7.63935       18.10040        5.67807
O          8.25455       15.91304        4.35086
O          9.08028       18.26172        3.49635
Si         9.97163       18.56795        2.19291
Si        12.82340       19.75186        2.19151
O         10.12201       17.22819        1.31603
O         13.66553       18.69919        1.31463
O         12.53631       21.07248        1.31463
O          9.24160       19.70265        1.31463
O         11.42896       19.08745        2.64184
Si         8.77405        9.97163        2.19291
Si         7.59014       12.82340        2.19151
O         10.11381       10.12201        1.31603
O          8.64281       13.66553        1.31463
O          6.26952       12.53631        1.31463
O          7.63935        9.24160        1.31463
O          8.25455       11.42896        2.64184
Si        17.37037        8.77405        2.19291
Si        14.51860        7.59014        2.19151
O         17.21999       10.11381        1.31603
O         13.67647        8.64281        1.31463
O         14.80569        6.26952        1.31463
O         18.10040        7.63935        1.31463
O         15.91304        8.25455        2.64184
Si        18.56795       17.37037        2.19291
Si        19.75186       14.51860        2.19151
O         17.22819       17.21999        1.31603
O         18.69919       13.67647        1.31463
O         21.07248       14.80569        1.31463
O         19.70265       18.10040        1.31463
O         19.08745       15.91304        2.64184
Si         3.69937        4.89695       16.17831
Si         0.84760        6.08086       16.17691
Si         2.89552        2.89825       13.98540
Si         4.53057        6.95307       13.98540
Si         0.00000        4.09857       13.98540
Si         1.71708        8.12331       13.98540
O          3.54899        3.55719       15.30143
O          0.00000        6.49646       17.48175
O          0.00547        5.02819       15.30003
O          1.13469        7.40148       15.30003
O          4.42940        6.03165       15.30003
O          2.24204        5.41645       16.62724
O          5.94142        7.72958       13.98540
O          1.30968        3.15800       13.98540
O          3.16894        1.31242       13.98540
O          4.59072        4.59072       17.48175
O          3.32479        8.01941       13.98540
O          1.27961        9.67087       13.98540
Si        22.44505        3.69937       16.17831
Si        21.26114        0.84760       16.17691
Si        24.44375        2.89552       13.98540
Si        20.38893        4.53057       13.98540
Si        23.24343        0.00000       13.98540
Si        19.21869        1.71708       13.98540
O         23.78481        3.54899       15.30143
O         20.84554        0.00000       17.48175
O         22.31381        0.00547       15.30003
O         19.94052        1.13469       15.30003
O         21.31035        4.42940       15.30003
O         21.92555        2.24204       16.62724
O         19.61242        5.94142       13.98540
O         24.18400        1.30968       13.98540
O         26.02958        3.16894       13.98540
O         22.75128        4.59072       17.48175
O         19.32259        3.32479       13.98540
O         17.67113        1.27961       13.98540
Si        23.64263       22.44505       16.17831
Si        26.49440       21.26114       16.17691
Si        24.44648       24.44375       13.98540
Si        22.81143       20.38893       13.98540
Si         0.00000       23.24343       13.98540
Si        25.62492       19.21869       13.98540
O         23.79301       23.78481       15.30143
O          0.00000       20.84554       17.48175
O         27.33653       22.31381       15.30003
O         26.20731       19.94052       15.30003
O         22.91260       21.31035       15.30003
O         25.09996       21.92555       16.62724
O         21.40058       19.61242       13.98540
O         26.03232       24.18400       13.98540
O         24.17306       26.02958       13.98540
O         22.75128       22.75128       17.48175
O         24.01721       19.32259       13.98540
O         26.06239       17.67113       13.98540
Si         4.89695       23.64263       16.17831
Si         6.08086       26.49440       16.17691
Si         2.89825       24.44648       13.98540
Si         6.95307       22.81143       13.98540
Si         4.09857        0.00000       13.98540
Si         8.12331       25.62492       13.98540
O          3.55719       23.79301       15.30143
O          6.49646        0.00000       17.48175
O          5.02819       27.33653       15.30003
O          7.40148       26.20731       15.30003
O          6.03165       22.91260       15.30003
O          5.41645       25.09996       16.62724
O          7.72958       21.40058       13.98540
O          3.15800       26.03232       13.98540
O          1.31242       24.17306       13.98540
O          4.59072       22.75128       17.48175
O          8.01941       24.01721       13.98540
O          9.67087       26.06239       13.98540
Si         3.69937       22.44505       18.78519
Si         0.84760       21.26114       18.78659
Si         2.89552       24.44375       20.97810
Si         4.53057       20.38893       20.97810
Si         0.00000       23.24343       20.97810
Si         1.71708       19.21869       20.97810
O          3.54899       23.78481       19.66207
O          0.00547       22.31381       19.66347
O          1.13469       19.94052       19.66347
O          4.42940       21.31035       19.66347
O          2.24204       21.92555       18.33626
O          5.94142       19.61242       20.97810
O          1.30968       24.18400       20.97810
O          3.16894       26.02958       20.97810
O          3.32479       19.32259       20.97810
O          1.27961       17.67113       20.97810
Si         4.89695        3.69937       18.78519
Si         6.08086        0.84760       18.78659
Si         2.89825        2.89552       20.97810
Si         6.95307        4.53057       20.97810
Si         4.09857        0.00000       20.97810
Si         8.12331        1.71708       20.97810
O          3.55719        3.54899       19.66207
O          5.02819        0.00547       19.66347
O          7.40148        1.13469       19.66347
O          6.03165        4.42940       19.66347
O          5.41645        2.24204       18.33626
O          7.72958        5.94142       20.97810
O          3.15800        1.30968       20.97810
O          1.31242        3.16894       20.97810
O          8.01941        3.32479       20.97810
O          9.67087        1.27961       20.97810
Si        23.64263        4.89695       18.78519
Si        26.49440        6.08086       18.78659
Si        24.44648        2.89825       20.97810
Si        22.81143        6.95307       20.97810
Si         0.00000        4.09857       20.97810
Si        25.62492        8.12331       20.97810
O         23.79301        3.55719       19.66207
O         27.33653        5.02819       19.66347
O         26.20731        7.40148       19.66347
O         22.91260        6.03165       19.66347
O         25.09996        5.41645       18.33626
O         21.40058        7.72958       20.97810
O         26.03232        3.15800       20.97810
O         24.17306        1.31242       20.97810
O         24.01721        8.01941       20.97810
O         26.06239        9.67087       20.97810
Si        22.44505       23.64263       18.78519
Si        21.26114       26.49440       18.78659
Si        24.44375       24.44648       20.97810
Si        20.38893       22.81143       20.97810
Si        23.24343        0.00000       20.97810
Si        19.21869       25.62492       20.97810
O         23.78481       23.79301       19.66207
O         22.31381       27.33653       19.66347
O         19.94052       26.20731       19.66347
O         21.31035       22.91260       19.66347
O         21.92555       25.09996       18.33626
O         19.61242       21.40058       20.97810
O         24.18400       26.03232       20.97810
O         26.02958       24.17306       20.97810
O         19.32259       24.01721       20.97810
O         17.67113       26.06239       20.97810
Si        23.64263       22.44505       25.77789
Si        26.49440       21.26114       25.77929
O         23.79301       23.78481       26.65477
O          0.00000       20.84554       24.47445
O         27.33653       22.31381       26.65617
O         26.20731       19.94052       26.65617
O         22.91260       21.31035       26.65617
O         25.09996       21.92555       25.32896
O         22.75128       22.75128       24.47445
Si         4.89695       23.64263       25.77789
Si         6.08086       26.49440       25.77929
O          3.55719       23.79301       26.65477
O          6.49646        0.00000       24.47445
O          5.02819       27.33653       26.65617
O          7.40148       26.20731       26.65617
O          6.03165       22.91260       26.65617
O          5.41645       25.09996       25.32896
O          4.59072       22.75128       24.47445
Si         3.69937        4.89695       25.77789
Si         0.84760        6.08086       25.77929
O          3.54899        3.55719       26.65477
O          0.00000        6.49646       24.47445
O          0.00547        5.02819       26.65617
O          1.13469        7.40148       26.65617
O          4.42940        6.03165       26.65617
O          2.24204        5.41645       25.32896
O          4.59072        4.59072       24.47445
Si        22.44505        3.69937       25.77789
Si        21.26114        0.84760       25.77929
O         23.78481        3.54899       26.65477
O         20.84554        0.00000       24.47445
O         22.31381        0.00547       26.65617
O         19.94052        1.13469       26.65617
O         21.31035        4.42940       26.65617
O         21.92555        2.24204       25.32896
O         22.75128        4.59072       24.47445
Si        23.64263        4.89695       23.17101
Si        26.49440        6.08086       23.16961
O         23.79301        3.55719       22.29413
O         27.33653        5.02819       22.29273
O         26.20731        7.40148       22.29273
O         22.91260        6.03165       22.29273
O         25.09996        5.41645       23.61994
Si        22.44505       23.64263       23.17101
Si        21.26114       26.49440       23.16961
O         23.78481       23.79301       22.29413
O         22.31381       27.33653       22.29273
O         19.94052       26.20731       22.29273
O         21.31035       22.91260       22.29273
O         21.92555       25.09996       23.61994
Si         3.69937       22.44505       23.17101
Si         0.84760       21.26114       23.16961
O          3.54899       23.78481       22.29413
O          0.00547       22.31381       22.29273
O          1.13469       19.94052       22.29273
O          4.42940       21.31035       22.29273
O          2.24204       21.92555       23.61994
Si         4.89695        3.69937       23.17101
Si         6.08086        0.84760       23.16961
O          3.55719        3.54899       22.29413
O          5.02819        0.00547       22.29273
O          7.40148        1.13469       22.29273
O          6.03165        4.42940       22.29273
O          5.41645        2.24204       23.61994
Si        17.37037       18.56795       23.17101
Si        14.51860       19.75186       23.16961
Si        16.56652       16.56925       20.97810
Si        18.20157       20.62407       20.97810
Si        13.67100       17.76957       20.97810
Si        15.38808       21.79431       20.97810
O         17.21999       17.22819       22.29413
O         13.67100       20.16746       24.47445
O         13.67647       18.69919       22.29273
O         14.80569       21.07248       22.29273
O         18.10040       19.70265       22.29273
O         15.91304       19.08745       23.61994
O         14.98068       16.82900       20.97810
O         16.83994       14.98342       20.97810
O         18.26172       18.26172       24.47445
O         16.99579       21.69041       20.97810
O         14.95061       23.34187       20.97810
Si         8.77405       17.37037       23.17101
Si         7.59014       14.51860       23.16961
Si        10.77275       16.56652       20.97810
Si         6.71793       18.20157       20.97810
Si         9.57243       13.67100       20.97810
Si         5.54769       15.38808       20.97810
O         10.11381       17.21999       22.29413
O          7.17454       13.67100       24.47445
O          8.64281       13.67647       22.29273
O          6.26952       14.80569       22.29273
O          7.63935       18.10040       22.29273
O          8.25455       15.91304       23.61994
O         10.51300       14.98068       20.97810
O         12.35858       16.83994       20.97810
O          9.08028       18.26172       24.47445
O          5.65159       16.99579       20.97810
O          4.00013       14.95061       20.97810
Si         9.97163        8.77405       23.17101
Si        12.82340        7.59014       23.16961
Si        10.77548       10.77275       20.97810
Si         9.14043        6.71793       20.97810
Si        13.67100        9.57243       20.97810
Si        11.95392        5.54769       20.97810
O         10.12201       10.11381       22.29413
O         13.67100        7.17454       24.47445
O         13.66553        8.64281       22.29273
O         12.53631        6.26952       22.29273
O          9.24160        7.63935       22.29273
O         11.42896        8.25455       23.61994
O         12.36132       10.51300       20.97810
O         10.50206       12.35858       20.97810
O          9.08028        9.08028       24.47445
O         10.34621        5.65159       20.97810
O         12.39139        4.00013       20.97810
Si        18.56795        9.97163       23.17101
Si        19.75186       12.82340       23.16961
Si        16.56925       10.77548       20.97810
Si        20.62407        9.14043       20.97810
Si        17.76957       13.67100       20.97810
Si        21.79431       11.95392       20.97810
O         17.22819       10.12201       22.29413
O         20.16746       13.67100       24.47445
O         18.69919       13.66553       22.29273
O         21.07248       12.53631       22.29273
O         19.70265        9.24160       22.29273
O         19.08745       11.42896       23.61994
O         16.82900       12.36132       20.97810
O         14.98342       10.50206       20.97810
O         18.26172        9.08028       24.47445
O         21.69041       10.34621       20.97810
O         23.34187       12.39139       20.97810
Si        17.37037        8.77405       25.77789
Si        14.51860        7.59014       25.77929
Si        16.56652       10.77275       13.98540
Si        18.20157        6.71793       13.98540
Si        13.67100        9.57243       13.98540
Si        15.38808        5.54769       13.98540
O         17.21999       10.11381       26.65477
O         13.67647        8.64281       26.65617
O         14.80569        6.26952       26.65617
O         18.10040        7.63935       26.65617
O         15.91304        8.25455       25.32896
O         14.98068       10.51300       13.98540
O         16.83994       12.35858       13.98540
O         16.99579        5.65159       13.98540
O         14.95061        4.00013       13.98540
Si        18.56795       17.37037       25.77789
Si        19.75186       14.51860       25.77929
Si        16.56925       16.56652       13.98540
Si        20.62407       18.20157       13.98540
Si        17.76957       13.67100       13.98540
Si        21.79431       15.38808       13.98540
O         17.22819       17.21999       26.65477
O         18.69919       13.67647       26.65617
O         21.07248       14.80569       26.65617
O         19.70265       18.10040       26.65617
O         19.08745       15.91304       25.32896
O         16.82900       14.98068       13.98540
O         14.98342       16.83994       13.98540
O         21.69041       16.99579       13.98540
O         23.34187       14.95061       13.98540
Si         9.97163       18.56795       25.77789
Si        12.82340       19.75186       25.77929
Si        10.77548       16.56925       13.98540
Si         9.14043       20.62407       13.98540
Si        13.67100       17.76957       13.98540
Si        11.95392       21.79431       13.98540
O         10.12201       17.22819       26.65477
O         13.66553       18.69919       26.65617
O         12.53631       21.07248       26.65617
O          9.24160       19.70265       26.65617
O         11.42896       19.08745       25.32896
O         12.36132       16.82900       13.98540
O         10.50206       14.98342       13.98540
O         10.34621       21.69041       13.98540
O         12.39139       23.34187       13.98540
Si         8.77405        9.97163       25.77789
Si         7.59014       12.82340       25.77929
Si        10.77275       10.77548       13.98540
Si         6.71793        9.14043       13.98540
Si         9.57243       13.67100       13.98540
Si         5.54769       11.95392       13.98540
O         10.11381       10.12201       26.65477
O          8.64281       13.66553       26.65617
O          6.26952       12.53631       26.65617
O          7.63935        9.24160       26.65617
O          8.25455       11.42896       25.32896
O         10.51300       12.36132       13.98540
O         12.35858       10.50206       13.98540
O          5.65159       10.34621       13.98540
O          4.00013       12.39139       13.98540
Si         9.97163        8.77405       18.78519
Si        12.82340        7.59014       18.78659
O         10.12201       10.11381       19.66207
O         13.67100        7.17454       17.48175
O         13.66553        8.64281       19.66347
O         12.53631        6.26952       19.66347
O          9.24160        7.63935       19.66347
O         11.42896        8.25455       18.33626
O          9.08028        9.08028       17.48175
Si        18.56795        9.97163       18.78519
Si        19.75186       12.82340       18.78659
O         17.22819       10.12201       19.66207
O         20.16746       13.67100       17.48175
O         18.69919       13.66553       19.66347
O         21.07248       12.53631       19.66347
O         19.70265        9.24160       19.66347
O         19.08745       11.42896       18.33626
O         18.26172        9.08028       17.48175
Si        17.37037       18.56795       18.78519
Si        14.51860       19.75186       18.78659
O         17.21999       17.22819       19.66207
O         13.67100       20.16746       17.48175
O         13.67647       18.69919       19.66347
O         14.80569       21.07248       19.66347
O         18.10040       19.70265       19.66347
O         15.91304       19.08745       18.33626
O         18.26172       18.26172       17.48175
Si         8.77405       17.37037       18.78519
Si         7.59014       14.51860       18.78659
O         10.11381       17.21999       19.66207
O          7.17454       13.67100       17.48175
O          8.64281       13.67647       19.66347
O          6.26952       14.80569       19.66347
O          7.63935       18.10040       19.66347
O          8.25455       15.91304       18.33626
O          9.08028       18.26172       17.48175
Si         9.97163       18.56795       16.17831
Si        12.82340       19.75186       16.17691
O         10.12201       17.22819       15.30143
O         13.66553       18.69919       15.30003
O         12.53631       21.07248       15.30003
O          9.24160       19.70265       15.30003
O         11.42896       19.08745       16.62724
Si         8.77405        9.97163       16.17831
Si         7.59014       12.82340       16.17691
O         10.11381       10.12201       15.30143
O          8.64281       13.66553       15.30003
O          6.26952       12.53631       15.30003
O          7.63935        9.24160       15.30003
O          8.25455       11.42896       16.62724
Si        17.37037        8.77405       16.17831
Si        14.51860        7.59014       16.17691
O         17.21999       10.11381       15.30143
O         13.67647        8.64281       15.30003
O         14.80569        6.26952       15.30003
O         18.10040        7.63935       15.30003
O         15.91304        8.25455       16.62724
Si        18.56795       17.37037       16.17831
Si        19.75186       14.51860       16.17691
O         17.22819       17.21999       15.30143
O         18.69919       13.67647       15.30003
O         21.07248       14.80569       15.30003
O         19.70265       18.10040       15.30003
O         19.08745       15.91304       16.62724
