768
zeolite
O          1.86802        1.53844        0.00000
O          1.72125        0.00000        2.11810
O          0.00000        1.96200        1.80231
O          2.52202        2.50399        2.34404
O          5.12385        2.10747       23.37874
O          4.14028        4.31923       24.36206
O          4.07333        3.91370       21.76642
O          6.43700        0.00000        1.47112
O          6.43700        2.16927        0.00000
O          6.43700        4.28189        0.00000
O          4.94490        6.43700        0.00000
O          4.54452        4.54452        6.41850
O          6.43700        4.79685        4.60848
O          4.38617        6.43700        4.60078
Si         3.96390        3.21078       23.20930
Si         1.52557        1.50368        1.57125
Si         4.85865        4.92302        4.88576
Si         6.43700        1.60668        1.50963
Si         4.92173        4.83032        0.00000
O         11.33556        1.86802       12.83700
O          0.00000        1.72125       14.95510
O         10.91200        0.00000       14.63931
O         10.37001        2.52202       15.18104
O         10.76653        5.12385       10.54174
O          8.55477        4.14028       11.52506
O          8.96030        4.07333        8.92942
O          0.00000        6.43700       14.30812
O         10.70473        6.43700       12.83700
O          8.59211        6.43700       12.83700
O          6.43700        4.94490       12.83700
O          8.32948        4.54452       19.25550
O          8.07715        6.43700       17.44548
O          6.43700        4.38617       17.43778
Si         9.66322        3.96390       10.37230
Si        11.37032        1.52557       14.40825
Si         7.95098        4.85865       17.72276
Si        11.26732        6.43700       14.34663
Si         8.04368        4.92173       12.83700
O         11.00598       11.33556        0.00000
O         11.15275        0.00000        2.11810
O          0.00000       10.91200        1.80231
O         10.35198       10.37001        2.34404
O          7.75015       10.76653       23.37874
O          8.73372        8.55477       24.36206
O          8.80067        8.96030       21.76642
O          6.43700       10.70473        0.00000
O          6.43700        8.59211        0.00000
O          7.92910        6.43700        0.00000
O          8.32948        8.32948        6.41850
O          6.43700        8.07715        4.60848
O          8.48783        6.43700        4.60078
Si         8.91010        9.66322       23.20930
Si        11.34843       11.37032        1.57125
Si         8.01535        7.95098        4.88576
Si         6.43700       11.26732        1.50963
Si         7.95227        8.04368        0.00000
O          1.53844       11.00598       12.83700
O          0.00000       11.15275       14.95510
O          1.96200        0.00000       14.63931
O          2.50399       10.35198       15.18104
O          2.10747        7.75015       10.54174
O          4.31923        8.73372       11.52506
O          3.91370        8.80067        8.92942
O          2.16927        6.43700       12.83700
O          4.28189        6.43700       12.83700
O          6.43700        7.92910       12.83700
O          4.54452        8.32948       19.25550
O          4.79685        6.43700       17.44548
O          6.43700        8.48783       17.43778
Si         3.21078        8.91010       10.37230
Si         1.50368       11.34843       14.40825
Si         4.92302        8.01535       17.72276
Si         1.60668        6.43700       14.34663
Si         4.83032        7.95227       12.83700
O          1.86802       11.33556        0.00000
O          1.72125        0.00000       23.55589
O          0.00000       10.91200       23.87169
O          2.52202       10.37001       23.32996
O          5.12385       10.76653        2.29526
O          4.14028        8.55477        1.31194
O          4.07333        8.96030        3.90758
O          6.43700        0.00000       24.20288
O          6.43700        8.07715       21.06552
O          4.38617        6.43700       21.07322
Si         3.96390        9.66322        2.46470
Si         1.52557       11.37032       24.10275
Si         4.85865        7.95098       20.78824
Si         6.43700       11.26732       24.16437
Si         4.92173        8.04368        0.00000
O          1.53844        1.86802       12.83700
O          0.00000        1.72125       10.71889
O          1.96200        0.00000       11.03469
O          2.50399        2.52202       10.49296
O          2.10747        5.12385       15.13226
O          4.31923        4.14028       14.14894
O          3.91370        4.07333       16.74458
O          0.00000        6.43700       11.36588
O          4.79685        6.43700        8.22852
O          6.43700        4.38617        8.23622
Si         3.21078        3.96390       15.30170
Si         1.50368        1.52557       11.26575
Si         4.92302        4.85865        7.95124
Si         1.60668        6.43700       11.32737
Si         4.83032        4.92173       12.83700
O         11.00598        1.53844        0.00000
O         11.15275        0.00000       23.55589
O          0.00000        1.96200       23.87169
O         10.35198        2.50399       23.32996
O          7.75015        2.10747        2.29526
O          8.73372        4.31923        1.31194
O          8.80067        3.91370        3.90758
O          6.43700        4.79685       21.06552
O          8.48783        6.43700       21.07322
Si         8.91010        3.21078        2.46470
Si        11.34843        1.50368       24.10275
Si         8.01535        4.92302       20.78824
Si         6.43700        1.60668       24.16437
Si         7.95227        4.83032        0.00000
O         11.33556       11.00598       12.83700
O          0.00000       11.15275       10.71889
O         10.91200        0.00000       11.03469
O         10.37001       10.35198       10.49296
O         10.76653        7.75015       15.13226
O          8.55477        8.73372       14.14894
O          8.96030        8.80067       16.74458
O          8.07715        6.43700        8.22852
O          6.43700        8.48783        8.23622
Si         9.66322        8.91010       15.30170
Si        11.37032       11.34843       11.26575
Si         7.95098        8.01535        7.95124
Si        11.26732        6.43700       11.32737
Si         8.04368        7.95227       12.83700
O         10.35198       10.37001       23.32996
O          7.75015       10.76653        2.29526
O          8.73372        8.55477        1.31194
O          8.80067        8.96030        3.90758
O          8.32948        8.32948       19.25550
Si         8.91010        9.66322        2.46470
Si        11.34843       11.37032       24.10275
Si         8.01535        7.95098       20.78824
O          2.50399       10.35198       10.49296
O          2.10747        7.75015       15.13226
O          4.31923        8.73372       14.14894
O          3.91370        8.80067       16.74458
O          4.54452        8.32948        6.41850
Si         3.21078        8.91010       15.30170
Si         1.50368       11.34843       11.26575
Si         4.92302        8.01535        7.95124
O          2.52202        2.50399       23.32996
O          5.12385        2.10747        2.29526
O          4.14028        4.31923        1.31194
O          4.07333        3.91370        3.90758
O          4.54452        4.54452       19.25550
Si         3.96390        3.21078        2.46470
Si         1.52557        1.50368       24.10275
Si         4.85865        4.92302       20.78824
O         10.37001        2.52202       10.49296
O         10.76653        5.12385       15.13226
O          8.55477        4.14028       14.14894
O          8.96030        4.07333       16.74458
O          8.32948        4.54452        6.41850
Si         9.66322        3.96390       15.30170
Si        11.37032        1.52557       11.26575
Si         7.95098        4.85865        7.95124
O         10.35198        2.50399        2.34404
O          7.75015        2.10747       23.37874
O          8.73372        4.31923       24.36206
O          8.80067        3.91370       21.76642
Si         8.91010        3.21078       23.20930
Si        11.34843        1.50368        1.57125
Si         8.01535        4.92302        4.88576
O         10.37001       10.35198       15.18104
O         10.76653        7.75015       10.54174
O          8.55477        8.73372       11.52506
O          8.96030        8.80067        8.92942
Si         9.66322        8.91010       10.37230
Si        11.37032       11.34843       14.40825
Si         7.95098        8.01535       17.72276
O          2.52202       10.37001        2.34404
O          5.12385       10.76653       23.37874
O          4.14028        8.55477       24.36206
O          4.07333        8.96030       21.76642
Si         3.96390        9.66322       23.20930
Si         1.52557       11.37032        1.57125
Si         4.85865        7.95098        4.88576
O          2.50399        2.52202       15.18104
O          2.10747        5.12385       10.54174
O          4.31923        4.14028       11.52506
O          3.91370        4.07333        8.92942
Si         3.21078        3.96390       10.37230
Si         1.50368        1.52557       14.40825
Si         4.92302        4.85865       17.72276
O          1.86802       14.41244        0.00000
O          1.72125       12.87400        2.11810
O          0.00000       14.83600        1.80231
O          2.52202       15.37799        2.34404
O          5.12385       14.98147       23.37874
O          4.14028       17.19323       24.36206
O          4.07333       16.78770       21.76642
O          6.43700       12.87400        1.47112
O          6.43700       15.04327        0.00000
O          6.43700       17.15589        0.00000
O          4.94490       19.31100        0.00000
O          4.54452       17.41852        6.41850
O          6.43700       17.67085        4.60848
O          4.38617       19.31100        4.60078
Si         3.96390       16.08478       23.20930
Si         1.52557       14.37768        1.57125
Si         4.85865       17.79702        4.88576
Si         6.43700       14.48068        1.50963
Si         4.92173       17.70432        0.00000
O         11.33556       14.74202       12.83700
O          0.00000       14.59525       14.95510
O         10.91200       12.87400       14.63931
O         10.37001       15.39602       15.18104
O         10.76653       17.99785       10.54174
O          8.55477       17.01428       11.52506
O          8.96030       16.94733        8.92942
O          0.00000       19.31100       14.30812
O         10.70473       19.31100       12.83700
O          8.59211       19.31100       12.83700
O          6.43700       17.81890       12.83700
O          8.32948       17.41852       19.25550
O          8.07715       19.31100       17.44548
O          6.43700       17.26017       17.43778
Si         9.66322       16.83790       10.37230
Si        11.37032       14.39957       14.40825
Si         7.95098       17.73265       17.72276
Si        11.26732       19.31100       14.34663
Si         8.04368       17.79573       12.83700
O         11.00598       24.20956        0.00000
O         11.15275       12.87400        2.11810
O          0.00000       23.78600        1.80231
O         10.35198       23.24401        2.34404
O          7.75015       23.64053       23.37874
O          8.73372       21.42877       24.36206
O          8.80067       21.83430       21.76642
O          6.43700       23.57873        0.00000
O          6.43700       21.46611        0.00000
O          7.92910       19.31100        0.00000
O          8.32948       21.20348        6.41850
O          6.43700       20.95115        4.60848
O          8.48783       19.31100        4.60078
Si         8.91010       22.53722       23.20930
Si        11.34843       24.24432        1.57125
Si         8.01535       20.82498        4.88576
Si         6.43700       24.14132        1.50963
Si         7.95227       20.91768        0.00000
O          1.53844       23.87998       12.83700
O          0.00000       24.02675       14.95510
O          1.96200       12.87400       14.63931
O          2.50399       23.22598       15.18104
O          2.10747       20.62415       10.54174
O          4.31923       21.60772       11.52506
O          3.91370       21.67467        8.92942
O          2.16927       19.31100       12.83700
O          4.28189       19.31100       12.83700
O          6.43700       20.80310       12.83700
O          4.54452       21.20348       19.25550
O          4.79685       19.31100       17.44548
O          6.43700       21.36183       17.43778
Si         3.21078       21.78410       10.37230
Si         1.50368       24.22243       14.40825
Si         4.92302       20.88935       17.72276
Si         1.60668       19.31100       14.34663
Si         4.83032       20.82627       12.83700
O          1.86802       24.20956        0.00000
O          1.72125       12.87400       23.55589
O          0.00000       23.78600       23.87169
O          2.52202       23.24401       23.32996
O          5.12385       23.64053        2.29526
O          4.14028       21.42877        1.31194
O          4.07333       21.83430        3.90758
O          6.43700       12.87400       24.20288
O          6.43700       20.95115       21.06552
O          4.38617       19.31100       21.07322
Si         3.96390       22.53722        2.46470
Si         1.52557       24.24432       24.10275
Si         4.85865       20.82498       20.78824
Si         6.43700       24.14132       24.16437
Si         4.92173       20.91768        0.00000
O          1.53844       14.74202       12.83700
O          0.00000       14.59525       10.71889
O          1.96200       12.87400       11.03469
O          2.50399       15.39602       10.49296
O          2.10747       17.99785       15.13226
O          4.31923       17.01428       14.14894
O          3.91370       16.94733       16.74458
O          0.00000       19.31100       11.36588
O          4.79685       19.31100        8.22852
O          6.43700       17.26017        8.23622
Si         3.21078       16.83790       15.30170
Si         1.50368       14.39957       11.26575
Si         4.92302       17.73265        7.95124
Si         1.60668       19.31100       11.32737
Si         4.83032       17.79573       12.83700
O         11.00598       14.41244        0.00000
O         11.15275       12.87400       23.55589
O          0.00000       14.83600       23.87169
O         10.35198       15.37799       23.32996
O          7.75015       14.98147        2.29526
O          8.73372       17.19323        1.31194
O          8.80067       16.78770        3.90758
O          6.43700       17.67085       21.06552
O          8.48783       19.31100       21.07322
Si         8.91010       16.08478        2.46470
Si        11.34843       14.37768       24.10275
Si         8.01535       17.79702       20.78824
Si         6.43700       14.48068       24.16437
Si         7.95227       17.70432        0.00000
O         11.33556       23.87998       12.83700
O          0.00000       24.02675       10.71889
O         10.91200       12.87400       11.03469
O         10.37001       23.22598       10.49296
O         10.76653       20.62415       15.13226
O          8.55477       21.60772       14.14894
O          8.96030       21.67467       16.74458
O          8.07715       19.31100        8.22852
O          6.43700       21.36183        8.23622
Si         9.66322       21.78410       15.30170
Si        11.37032       24.22243       11.26575
Si         7.95098       20.88935        7.95124
Si        11.26732       19.31100       11.32737
Si         8.04368       20.82627       12.83700
O         10.35198       23.24401       23.32996
O          7.75015       23.64053        2.29526
O          8.73372       21.42877        1.31194
O          8.80067       21.83430        3.90758
O          8.32948       21.20348       19.25550
Si         8.91010       22.53722        2.46470
Si        11.34843       24.24432       24.10275
Si         8.01535       20.82498       20.78824
O          2.50399       23.22598       10.49296
O          2.10747       20.62415       15.13226
O          4.31923       21.60772       14.14894
O          3.91370       21.67467       16.74458
O          4.54452       21.20348        6.41850
Si         3.21078       21.78410       15.30170
Si         1.50368       24.22243       11.26575
Si         4.92302       20.88935        7.95124
O          2.52202       15.37799       23.32996
O          5.12385       14.98147        2.29526
O          4.14028       17.19323        1.31194
O          4.07333       16.78770        3.90758
O          4.54452       17.41852       19.25550
Si         3.96390       16.08478        2.46470
Si         1.52557       14.37768       24.10275
Si         4.85865       17.79702       20.78824
O         10.37001       15.39602       10.49296
O         10.76653       17.99785       15.13226
O          8.55477       17.01428       14.14894
O          8.96030       16.94733       16.74458
O          8.32948       17.41852        6.41850
Si         9.66322       16.83790       15.30170
Si        11.37032       14.39957       11.26575
Si         7.95098       17.73265        7.95124
O         10.35198       15.37799        2.34404
O          7.75015       14.98147       23.37874
O          8.73372       17.19323       24.36206
O          8.80067       16.78770       21.76642
Si         8.91010       16.08478       23.20930
Si        11.34843       14.37768        1.57125
Si         8.01535       17.79702        4.88576
O         10.37001       23.22598       15.18104
O         10.76653       20.62415       10.54174
O          8.55477       21.60772       11.52506
O          8.96030       21.67467        8.92942
Si         9.66322       21.78410       10.37230
Si        11.37032       24.22243       14.40825
Si         7.95098       20.88935       17.72276
O          2.52202       23.24401        2.34404
O          5.12385       23.64053       23.37874
O          4.14028       21.42877       24.36206
O          4.07333       21.83430       21.76642
Si         3.96390       22.53722       23.20930
Si         1.52557       24.24432        1.57125
Si         4.85865       20.82498        4.88576
O          2.50399       15.39602       15.18104
O          2.10747       17.99785       10.54174
O          4.31923       17.01428       11.52506
O          3.91370       16.94733        8.92942
Si         3.21078       16.83790       10.37230
Si         1.50368       14.39957       14.40825
Si         4.92302       17.73265       17.72276
O         14.74202        1.53844        0.00000
O         14.59525        0.00000        2.11810
O         12.87400        1.96200        1.80231
O         15.39602        2.50399        2.34404
O         17.99785        2.10747       23.37874
O         17.01428        4.31923       24.36206
O         16.94733        3.91370       21.76642
O         19.31100        0.00000        1.47112
O         19.31100        2.16927        0.00000
O         19.31100        4.28189        0.00000
O         17.81890        6.43700        0.00000
O         17.41852        4.54452        6.41850
O         19.31100        4.79685        4.60848
O         17.26017        6.43700        4.60078
Si        16.83790        3.21078       23.20930
Si        14.39957        1.50368        1.57125
Si        17.73265        4.92302        4.88576
Si        19.31100        1.60668        1.50963
Si        17.79573        4.83032        0.00000
O         24.20956        1.86802       12.83700
O         12.87400        1.72125       14.95510
O         23.78600        0.00000       14.63931
O         23.24401        2.52202       15.18104
O         23.64053        5.12385       10.54174
O         21.42877        4.14028       11.52506
O         21.83430        4.07333        8.92942
O         12.87400        6.43700       14.30812
O         23.57873        6.43700       12.83700
O         21.46611        6.43700       12.83700
O         19.31100        4.94490       12.83700
O         21.20348        4.54452       19.25550
O         20.95115        6.43700       17.44548
O         19.31100        4.38617       17.43778
Si        22.53722        3.96390       10.37230
Si        24.24432        1.52557       14.40825
Si        20.82498        4.85865       17.72276
Si        24.14132        6.43700       14.34663
Si        20.91768        4.92173       12.83700
O         23.87998       11.33556        0.00000
O         24.02675        0.00000        2.11810
O         12.87400       10.91200        1.80231
O         23.22598       10.37001        2.34404
O         20.62415       10.76653       23.37874
O         21.60772        8.55477       24.36206
O         21.67467        8.96030       21.76642
O         19.31100       10.70473        0.00000
O         19.31100        8.59211        0.00000
O         20.80310        6.43700        0.00000
O         21.20348        8.32948        6.41850
O         19.31100        8.07715        4.60848
O         21.36183        6.43700        4.60078
Si        21.78410        9.66322       23.20930
Si        24.22243       11.37032        1.57125
Si        20.88935        7.95098        4.88576
Si        19.31100       11.26732        1.50963
Si        20.82627        8.04368        0.00000
O         14.41244       11.00598       12.83700
O         12.87400       11.15275       14.95510
O         14.83600        0.00000       14.63931
O         15.37799       10.35198       15.18104
O         14.98147        7.75015       10.54174
O         17.19323        8.73372       11.52506
O         16.78770        8.80067        8.92942
O         15.04327        6.43700       12.83700
O         17.15589        6.43700       12.83700
O         19.31100        7.92910       12.83700
O         17.41852        8.32948       19.25550
O         17.67085        6.43700       17.44548
O         19.31100        8.48783       17.43778
Si        16.08478        8.91010       10.37230
Si        14.37768       11.34843       14.40825
Si        17.79702        8.01535       17.72276
Si        14.48068        6.43700       14.34663
Si        17.70432        7.95227       12.83700
O         14.74202       11.33556        0.00000
O         14.59525        0.00000       23.55589
O         12.87400       10.91200       23.87169
O         15.39602       10.37001       23.32996
O         17.99785       10.76653        2.29526
O         17.01428        8.55477        1.31194
O         16.94733        8.96030        3.90758
O         19.31100        0.00000       24.20288
O         19.31100        8.07715       21.06552
O         17.26017        6.43700       21.07322
Si        16.83790        9.66322        2.46470
Si        14.39957       11.37032       24.10275
Si        17.73265        7.95098       20.78824
Si        19.31100       11.26732       24.16437
Si        17.79573        8.04368        0.00000
O         14.41244        1.86802       12.83700
O         12.87400        1.72125       10.71889
O         14.83600        0.00000       11.03469
O         15.37799        2.52202       10.49296
O         14.98147        5.12385       15.13226
O         17.19323        4.14028       14.14894
O         16.78770        4.07333       16.74458
O         12.87400        6.43700       11.36588
O         17.67085        6.43700        8.22852
O         19.31100        4.38617        8.23622
Si        16.08478        3.96390       15.30170
Si        14.37768        1.52557       11.26575
Si        17.79702        4.85865        7.95124
Si        14.48068        6.43700       11.32737
Si        17.70432        4.92173       12.83700
O         23.87998        1.53844        0.00000
O         24.02675        0.00000       23.55589
O         12.87400        1.96200       23.87169
O         23.22598        2.50399       23.32996
O         20.62415        2.10747        2.29526
O         21.60772        4.31923        1.31194
O         21.67467        3.91370        3.90758
O         19.31100        4.79685       21.06552
O         21.36183        6.43700       21.07322
Si        21.78410        3.21078        2.46470
Si        24.22243        1.50368       24.10275
Si        20.88935        4.92302       20.78824
Si        19.31100        1.60668       24.16437
Si        20.82627        4.83032        0.00000
O         24.20956       11.00598       12.83700
O         12.87400       11.15275       10.71889
O         23.78600        0.00000       11.03469
O         23.24401       10.35198       10.49296
O         23.64053        7.75015       15.13226
O         21.42877        8.73372       14.14894
O         21.83430        8.80067       16.74458
O         20.95115        6.43700        8.22852
O         19.31100        8.48783        8.23622
Si        22.53722        8.91010       15.30170
Si        24.24432       11.34843       11.26575
Si        20.82498        8.01535        7.95124
Si        24.14132        6.43700       11.32737
Si        20.91768        7.95227       12.83700
O         23.22598       10.37001       23.32996
O         20.62415       10.76653        2.29526
O         21.60772        8.55477        1.31194
O         21.67467        8.96030        3.90758
O         21.20348        8.32948       19.25550
Si        21.78410        9.66322        2.46470
Si        24.22243       11.37032       24.10275
Si        20.88935        7.95098       20.78824
O         15.37799       10.35198       10.49296
O         14.98147        7.75015       15.13226
O         17.19323        8.73372       14.14894
O         16.78770        8.80067       16.74458
O         17.41852        8.32948        6.41850
Si        16.08478        8.91010       15.30170
Si        14.37768       11.34843       11.26575
Si        17.79702        8.01535        7.95124
O         15.39602        2.50399       23.32996
O         17.99785        2.10747        2.29526
O         17.01428        4.31923        1.31194
O         16.94733        3.91370        3.90758
O         17.41852        4.54452       19.25550
Si        16.83790        3.21078        2.46470
Si        14.39957        1.50368       24.10275
Si        17.73265        4.92302       20.78824
O         23.24401        2.52202       10.49296
O         23.64053        5.12385       15.13226
O         21.42877        4.14028       14.14894
O         21.83430        4.07333       16.74458
O         21.20348        4.54452        6.41850
Si        22.53722        3.96390       15.30170
Si        24.24432        1.52557       11.26575
Si        20.82498        4.85865        7.95124
O         23.22598        2.50399        2.34404
O         20.62415        2.10747       23.37874
O         21.60772        4.31923       24.36206
O         21.67467        3.91370       21.76642
Si        21.78410        3.21078       23.20930
Si        24.22243        1.50368        1.57125
Si        20.88935        4.92302        4.88576
O         23.24401       10.35198       15.18104
O         23.64053        7.75015       10.54174
O         21.42877        8.73372       11.52506
O         21.83430        8.80067        8.92942
Si        22.53722        8.91010       10.37230
Si        24.24432       11.34843       14.40825
Si        20.82498        8.01535       17.72276
O         15.39602       10.37001        2.34404
O         17.99785       10.76653       23.37874
O         17.01428        8.55477       24.36206
O         16.94733        8.96030       21.76642
Si        16.83790        9.66322       23.20930
Si        14.39957       11.37032        1.57125
Si        17.73265        7.95098        4.88576
O         15.37799        2.52202       15.18104
O         14.98147        5.12385       10.54174
O         17.19323        4.14028       11.52506
O         16.78770        4.07333        8.92942
Si        16.08478        3.96390       10.37230
Si        14.37768        1.52557       14.40825
Si        17.79702        4.85865       17.72276
O         14.74202       14.41244        0.00000
O         14.59525       12.87400        2.11810
O         12.87400       14.83600        1.80231
O         15.39602       15.37799        2.34404
O         17.99785       14.98147       23.37874
O         17.01428       17.19323       24.36206
O         16.94733       16.78770       21.76642
O         19.31100       12.87400        1.47112
O         19.31100       15.04327        0.00000
O         19.31100       17.15589        0.00000
O         17.81890       19.31100        0.00000
O         17.41852       17.41852        6.41850
O         19.31100       17.67085        4.60848
O         17.26017       19.31100        4.60078
Si        16.83790       16.08478       23.20930
Si        14.39957       14.37768        1.57125
Si        17.73265       17.79702        4.88576
Si        19.31100       14.48068        1.50963
Si        17.79573       17.70432        0.00000
O         24.20956       14.74202       12.83700
O         12.87400       14.59525       14.95510
O         23.78600       12.87400       14.63931
O         23.24401       15.39602       15.18104
O         23.64053       17.99785       10.54174
O         21.42877       17.01428       11.52506
O         21.83430       16.94733        8.92942
O         12.87400       19.31100       14.30812
O         23.57873       19.31100       12.83700
O         21.46611       19.31100       12.83700
O         19.31100       17.81890       12.83700
O         21.20348       17.41852       19.25550
O         20.95115       19.31100       17.44548
O         19.31100       17.26017       17.43778
Si        22.53722       16.83790       10.37230
Si        24.24432       14.39957       14.40825
Si        20.82498       17.73265       17.72276
Si        24.14132       19.31100       14.34663
Si        20.91768       17.79573       12.83700
O         23.87998       24.20956        0.00000
O         24.02675       12.87400        2.11810
O         12.87400       23.78600        1.80231
O         23.22598       23.24401        2.34404
O         20.62415       23.64053       23.37874
O         21.60772       21.42877       24.36206
O         21.67467       21.83430       21.76642
O         19.31100       23.57873        0.00000
O         19.31100       21.46611        0.00000
O         20.80310       19.31100        0.00000
O         21.20348       21.20348        6.41850
O         19.31100       20.95115        4.60848
O         21.36183       19.31100        4.60078
Si        21.78410       22.53722       23.20930
Si        24.22243       24.24432        1.57125
Si        20.88935       20.82498        4.88576
Si        19.31100       24.14132        1.50963
Si        20.82627       20.91768        0.00000
O         14.41244       23.87998       12.83700
O         12.87400       24.02675       14.95510
O         14.83600       12.87400       14.63931
O         15.37799       23.22598       15.18104
O         14.98147       20.62415       10.54174
O         17.19323       21.60772       11.52506
O         16.78770       21.67467        8.92942
O         15.04327       19.31100       12.83700
O         17.15589       19.31100       12.83700
O         19.31100       20.80310       12.83700
O         17.41852       21.20348       19.25550
O         17.67085       19.31100       17.44548
O         19.31100       21.36183       17.43778
Si        16.08478       21.78410       10.37230
Si        14.37768       24.22243       14.40825
Si        17.79702       20.88935       17.72276
Si        14.48068       19.31100       14.34663
Si        17.70432       20.82627       12.83700
O         14.74202       24.20956        0.00000
O         14.59525       12.87400       23.55589
O         12.87400       23.78600       23.87169
O         15.39602       23.24401       23.32996
O         17.99785       23.64053        2.29526
O         17.01428       21.42877        1.31194
O         16.94733       21.83430        3.90758
O         19.31100       12.87400       24.20288
O         19.31100       20.95115       21.06552
O         17.26017       19.31100       21.07322
Si        16.83790       22.53722        2.46470
Si        14.39957       24.24432       24.10275
Si        17.73265       20.82498       20.78824
Si        19.31100       24.14132       24.16437
Si        17.79573       20.91768        0.00000
O         14.41244       14.74202       12.83700
O         12.87400       14.59525       10.71889
O         14.83600       12.87400       11.03469
O         15.37799       15.39602       10.49296
O         14.98147       17.99785       15.13226
O         17.19323       17.01428       14.14894
O         16.78770       16.94733       16.74458
O         12.87400       19.31100       11.36588
O         17.67085       19.31100        8.22852
O         19.31100       17.26017        8.23622
Si        16.08478       16.83790       15.30170
Si        14.37768       14.39957       11.26575
Si        17.79702       17.73265        7.95124
Si        14.48068       19.31100       11.32737
Si        17.70432       17.79573       12.83700
O         23.87998       14.41244        0.00000
O         24.02675       12.87400       23.55589
O         12.87400       14.83600       23.87169
O         23.22598       15.37799       23.32996
O         20.62415       14.98147        2.29526
O         21.60772       17.19323        1.31194
O         21.67467       16.78770        3.90758
O         19.31100       17.67085       21.06552
O         21.36183       19.31100       21.07322
Si        21.78410       16.08478        2.46470
Si        24.22243       14.37768       24.10275
Si        20.88935       17.79702       20.78824
Si        19.31100       14.48068       24.16437
Si        20.82627       17.70432        0.00000
O         24.20956       23.87998       12.83700
O         12.87400       24.02675       10.71889
O         23.78600       12.87400       11.03469
O         23.24401       23.22598       10.49296
O         23.64053       20.62415       15.13226
O         21.42877       21.60772       14.14894
O         21.83430       21.67467       16.74458
O         20.95115       19.31100        8.22852
O         19.31100       21.36183        8.23622
Si        22.53722       21.78410       15.30170
Si        24.24432       24.22243       11.26575
Si        20.82498       20.88935        7.95124
Si        24.14132       19.31100       11.32737
Si        20.91768       20.82627       12.83700
O         23.22598       23.24401       23.32996
O         20.62415       23.64053        2.29526
O         21.60772       21.42877        1.31194
O         21.67467       21.83430        3.90758
O         21.20348       21.20348       19.25550
Si        21.78410       22.53722        2.46470
Si        24.22243       24.24432       24.10275
Si        20.88935       20.82498       20.78824
O         15.37799       23.22598       10.49296
O         14.98147       20.62415       15.13226
O         17.19323       21.60772       14.14894
O         16.78770       21.67467       16.74458
O         17.41852       21.20348        6.41850
Si        16.08478       21.78410       15.30170
Si        14.37768       24.22243       11.26575
Si        17.79702       20.88935        7.95124
O         15.39602       15.37799       23.32996
O         17.99785       14.98147        2.29526
O         17.01428       17.19323        1.31194
O         16.94733       16.78770        3.90758
O         17.41852       17.41852       19.25550
Si        16.83790       16.08478        2.46470
Si        14.39957       14.37768       24.10275
Si        17.73265       17.79702       20.78824
O         23.24401       15.39602       10.49296
O         23.64053       17.99785       15.13226
O         21.42877       17.01428       14.14894
O         21.83430       16.94733       16.74458
O         21.20348       17.41852        6.41850
Si        22.53722       16.83790       15.30170
Si        24.24432       14.39957       11.26575
Si        20.82498       17.73265        7.95124
O         23.22598       15.37799        2.34404
O         20.62415       14.98147       23.37874
O         21.60772       17.19323       24.36206
O         21.67467       16.78770       21.76642
Si        21.78410       16.08478       23.20930
Si        24.22243       14.37768        1.57125
Si        20.88935       17.79702        4.88576
O         23.24401       23.22598       15.18104
O         23.64053       20.62415       10.54174
O         21.42877       21.60772       11.52506
O         21.83430       21.67467        8.92942
Si        22.53722       21.78410       10.37230
Si        24.24432       24.22243       14.40825
Si        20.82498       20.88935       17.72276
O         15.39602       23.24401        2.34404
O         17.99785       23.64053       23.37874
O         17.01428       21.42877       24.36206
O         16.94733       21.83430       21.76642
Si        16.83790       22.53722       23.20930
Si        14.39957       24.24432        1.57125
Si        17.73265       20.82498        4.88576
O         15.37799       15.39602       15.18104
O         14.98147       17.99785       10.54174
O         17.19323       17.01428       11.52506
O         16.78770       16.94733        8.92942
Si        16.08478       16.83790       10.37230
Si        14.37768       14.39957       14.40825
Si        17.79702       17.73265       17.72276
