         912
 
O            2.46817   2.39945   2.54339
O            4.72764   2.55333   1.30516
O            4.41599   3.97474   3.45672
O            4.64972   1.31970   3.58361
O            6.95650   0.00000   3.48600
O            8.47858   0.00000   1.31910
O            1.67791   0.00000   1.86431
O            1.97008   1.83349   0.00000
O            0.00000   2.01606   1.72766
O            8.53702   4.98147  12.59562
O            6.52520   3.94606   0.00000
O            6.95650   6.52025   0.00000
O            6.95650   4.68154   3.48600
O            8.82084   6.52025   3.48600
O            6.63928   1.31709   0.00000
Si           4.05425   2.56898   2.76510
Si           1.53321   1.56747   1.52687
Si           8.43128   5.04928   2.95613
Si           7.66606   5.08058   0.00000
Si           5.65981   2.59245   0.00000
Si           8.46467   0.00000   2.92963
Si           7.55754   0.00000   0.00000
O           25.35783  23.68155   2.54339
O           23.09836  23.52767   1.30516
O           23.41001  22.10626   3.45672
O           23.17628  24.76130   3.58361
O           20.86950   0.00000   3.48600
O           19.34742   0.00000   1.31910
O           26.14809   0.00000   1.86431
O           25.85592  24.24751   0.00000
O            0.00000  24.06494   1.72766
O           19.28898  21.09953  12.59562
O           21.30080  22.13494   0.00000
O           20.86950  19.56075   0.00000
O           20.86950  21.39946   3.48600
O           19.00516  19.56075   3.48600
O           21.18672  24.76391   0.00000
Si          23.77175  23.51202   2.76510
Si          26.29279  24.51353   1.52687
Si          19.39472  21.03172   2.95613
Si          20.15994  21.00042   0.00000
Si          22.16619  23.48855   0.00000
Si          19.36133   0.00000   2.92963
Si          20.26846   0.00000   0.00000
O            2.46817  23.68155  11.40061
O            4.72764  23.52767  12.63884
O            4.41599  22.10626  10.48728
O            4.64972  24.76130  10.36039
O            6.95650   0.00000  10.45800
O            8.47858   0.00000  12.62490
O            1.67791   0.00000  12.07969
O            1.97008  24.24751   0.00000
O            0.00000  24.06494  12.21634
O            8.53702  21.09953   1.34838
O            6.52520  22.13494   0.00000
O            6.95650  19.56075   0.00000
O            6.95650  21.39946  10.45800
O            8.82084  19.56075  10.45800
O            6.63928  24.76391   0.00000
Si           4.05425  23.51202  11.17890
Si           1.53321  24.51353  12.41713
Si           8.43128  21.03172  10.98787
Si           7.66606  21.00042   0.00000
Si           5.65981  23.48855   0.00000
Si           8.46467   0.00000  11.01437
O           25.35783   2.39945  11.40061
O           23.09836   2.55333  12.63884
O           23.41001   3.97474  10.48728
O           23.17628   1.31970  10.36039
O           20.86950   0.00000  10.45800
O           19.34742   0.00000  12.62490
O           26.14809   0.00000  12.07969
O           25.85592   1.83349   0.00000
O            0.00000   2.01606  12.21634
O           19.28898   4.98147   1.34838
O           21.30080   3.94606   0.00000
O           20.86950   6.52025   0.00000
O           20.86950   4.68154  10.45800
O           19.00516   6.52025  10.45800
O           21.18672   1.31709   0.00000
Si          23.77175   2.56898  11.17890
Si          26.29279   1.56747  12.41713
Si          19.39472   5.04928  10.98787
Si          20.15994   5.08058   0.00000
Si          22.16619   2.59245   0.00000
Si          19.36133   0.00000  11.01437
O           25.35783  23.68155  11.40061
O           23.09836  23.52767  12.63884
O           23.41001  22.10626  10.48728
O           23.17628  24.76130  10.36039
O           19.28898  21.09953   1.34838
O           20.86950  21.39946  10.45800
O           19.00516  19.56075  10.45800
Si          23.77175  23.51202  11.17890
Si          26.29279  24.51353  12.41713
Si          19.39472  21.03172  10.98787
O            2.46817   2.39945  11.40061
O            4.72764   2.55333  12.63884
O            4.41599   3.97474  10.48728
O            4.64972   1.31970  10.36039
O            8.53702   4.98147   1.34838
O            6.95650   4.68154  10.45800
O            8.82084   6.52025  10.45800
Si           4.05425   2.56898  11.17890
Si           1.53321   1.56747  12.41713
Si           8.43128   5.04928  10.98787
O           25.35783   2.39945   2.54339
O           23.09836   2.55333   1.30516
O           23.41001   3.97474   3.45672
O           23.17628   1.31970   3.58361
O           19.28898   4.98147  12.59562
O           20.86950   4.68154   3.48600
O           19.00516   6.52025   3.48600
Si          23.77175   2.56898   2.76510
Si          26.29279   1.56747   1.52687
Si          19.39472   5.04928   2.95613
O            2.46817  23.68155   2.54339
O            4.72764  23.52767   1.30516
O            4.41599  22.10626   3.45672
O            4.64972  24.76130   3.58361
O            8.53702  21.09953  12.59562
O            6.95650  21.39946   3.48600
O            8.82084  19.56075   3.48600
Si           4.05425  23.51202   2.76510
Si           1.53321  24.51353   1.52687
Si           8.43128  21.03172   2.95613
O            2.46817  15.43995   9.51539
O            4.72764  15.59383   8.27716
O            4.41599  17.01524  10.42872
O            4.64972  14.36020  10.55561
O            6.95650  13.04050  10.45800
O            8.47858  13.04050   8.29110
O            1.67791  13.04050   8.83631
O            1.97008  14.87399   6.97200
O            0.00000  15.05656   8.69966
O            8.53702  18.02197   5.62362
O            6.52520  16.98656   6.97200
O            6.95650  19.56075   6.97200
O            6.95650  17.72204  10.45800
O            6.63928  14.35759   6.97200
Si           4.05425  15.60948   9.73710
Si           1.53321  14.60797   8.49887
Si           8.43128  18.08978   9.92813
Si           7.66606  18.12108   6.97200
Si           5.65981  15.63295   6.97200
Si           8.46467  13.04050   9.90163
Si           7.55754  13.04050   6.97200
O           25.35783  10.64105   9.51539
O           23.09836  10.48717   8.27716
O           23.41001   9.06576  10.42872
O           23.17628  11.72080  10.55561
O           20.86950  13.04050  10.45800
O           19.34742  13.04050   8.29110
O           26.14809  13.04050   8.83631
O           25.85592  11.20701   6.97200
O            0.00000  11.02444   8.69966
O           19.28898   8.05903   5.62362
O           21.30080   9.09444   6.97200
O           20.86950   6.52025   6.97200
O           20.86950   8.35896  10.45800
O           21.18672  11.72341   6.97200
Si          23.77175  10.47152   9.73710
Si          26.29279  11.47303   8.49887
Si          19.39472   7.99122   9.92813
Si          20.15994   7.95992   6.97200
Si          22.16619  10.44805   6.97200
Si          19.36133  13.04050   9.90163
Si          20.26846  13.04050   6.97200
O            2.46817  10.64105   4.42861
O            4.72764  10.48717   5.66684
O            4.41599   9.06576   3.51528
O            4.64972  11.72080   3.38839
O            6.95650  13.04050   3.48600
O            8.47858  13.04050   5.65290
O            1.67791  13.04050   5.10769
O            1.97008  11.20701   6.97200
O            0.00000  11.02444   5.24434
O            8.53702   8.05903   8.32038
O            6.52520   9.09444   6.97200
O            6.95650   6.52025   6.97200
O            6.95650   8.35896   3.48600
O            6.63928  11.72341   6.97200
Si           4.05425  10.47152   4.20690
Si           1.53321  11.47303   5.44513
Si           8.43128   7.99122   4.01587
Si           7.66606   7.95992   6.97200
Si           5.65981  10.44805   6.97200
Si           8.46467  13.04050   4.04237
O           25.35783  15.43995   4.42861
O           23.09836  15.59383   5.66684
O           23.41001  17.01524   3.51528
O           23.17628  14.36020   3.38839
O           20.86950  13.04050   3.48600
O           19.34742  13.04050   5.65290
O           26.14809  13.04050   5.10769
O           25.85592  14.87399   6.97200
O            0.00000  15.05656   5.24434
O           19.28898  18.02197   8.32038
O           21.30080  16.98656   6.97200
O           20.86950  19.56075   6.97200
O           20.86950  17.72204   3.48600
O           21.18672  14.35759   6.97200
Si          23.77175  15.60948   4.20690
Si          26.29279  14.60797   5.44513
Si          19.39472  18.08978   4.01587
Si          20.15994  18.12108   6.97200
Si          22.16619  15.63295   6.97200
Si          19.36133  13.04050   4.04237
O           25.35783  10.64105   4.42861
O           23.09836  10.48717   5.66684
O           23.41001   9.06576   3.51528
O           23.17628  11.72080   3.38839
O           19.28898   8.05903   8.32038
O           20.86950   8.35896   3.48600
Si          23.77175  10.47152   4.20690
Si          26.29279  11.47303   5.44513
Si          19.39472   7.99122   4.01587
O            2.46817  15.43995   4.42861
O            4.72764  15.59383   5.66684
O            4.41599  17.01524   3.51528
O            4.64972  14.36020   3.38839
O            8.53702  18.02197   8.32038
O            6.95650  17.72204   3.48600
Si           4.05425  15.60948   4.20690
Si           1.53321  14.60797   5.44513
Si           8.43128  18.08978   4.01587
O           25.35783  15.43995   9.51539
O           23.09836  15.59383   8.27716
O           23.41001  17.01524  10.42872
O           23.17628  14.36020  10.55561
O           19.28898  18.02197   5.62362
O           20.86950  17.72204  10.45800
Si          23.77175  15.60948   9.73710
Si          26.29279  14.60797   8.49887
Si          19.39472  18.08978   9.92813
O            2.46817  10.64105   9.51539
O            4.72764  10.48717   8.27716
O            4.41599   9.06576  10.42872
O            4.64972  11.72080  10.55561
O            8.53702   8.05903   5.62362
O            6.95650   8.35896  10.45800
Si           4.05425  10.47152   9.73710
Si           1.53321  11.47303   8.49887
Si           8.43128   7.99122   9.92813
O           16.38117   2.39945   9.51539
O           18.64064   2.55333   8.27716
O           18.32899   3.97474  10.42872
O           18.56272   1.31970  10.55561
O           22.39158   0.00000   8.29110
O           15.59091   0.00000   8.83631
O           15.88308   1.83349   6.97200
O           13.91300   2.01606   8.69966
O           22.45002   4.98147   5.62362
O           20.43820   3.94606   6.97200
O           22.73384   6.52025  10.45800
O           20.55228   1.31709   6.97200
Si          17.96725   2.56898   9.73710
Si          15.44621   1.56747   8.49887
Si          22.34428   5.04928   9.92813
Si          21.57906   5.08058   6.97200
Si          19.57281   2.59245   6.97200
Si          22.37767   0.00000   9.90163
Si          21.47054   0.00000   6.97200
O           11.44483  23.68155   9.51539
O            9.18536  23.52767   8.27716
O            9.49701  22.10626  10.42872
O            9.26328  24.76130  10.55561
O            5.43442   0.00000   8.29110
O           12.23509   0.00000   8.83631
O           11.94292  24.24751   6.97200
O           13.91300  24.06494   8.69966
O            5.37598  21.09953   5.62362
O            7.38780  22.13494   6.97200
O            5.09216  19.56075  10.45800
O            7.27372  24.76391   6.97200
Si           9.85875  23.51202   9.73710
Si          12.37979  24.51353   8.49887
Si           5.48172  21.03172   9.92813
Si           6.24694  21.00042   6.97200
Si           8.25319  23.48855   6.97200
Si           5.44833   0.00000   9.90163
Si           6.35546   0.00000   6.97200
O           16.38117  23.68155   4.42861
O           18.64064  23.52767   5.66684
O           18.32899  22.10626   3.51528
O           18.56272  24.76130   3.38839
O           22.39158   0.00000   5.65290
O           15.59091   0.00000   5.10769
O           15.88308  24.24751   6.97200
O           13.91300  24.06494   5.24434
O           22.45002  21.09953   8.32038
O           20.43820  22.13494   6.97200
O           22.73384  19.56075   3.48600
O           20.55228  24.76391   6.97200
Si          17.96725  23.51202   4.20690
Si          15.44621  24.51353   5.44513
Si          22.34428  21.03172   4.01587
Si          21.57906  21.00042   6.97200
Si          19.57281  23.48855   6.97200
Si          22.37767   0.00000   4.04237
O           11.44483   2.39945   4.42861
O            9.18536   2.55333   5.66684
O            9.49701   3.97474   3.51528
O            9.26328   1.31970   3.38839
O            5.43442   0.00000   5.65290
O           12.23509   0.00000   5.10769
O           11.94292   1.83349   6.97200
O           13.91300   2.01606   5.24434
O            5.37598   4.98147   8.32038
O            7.38780   3.94606   6.97200
O            5.09216   6.52025   3.48600
O            7.27372   1.31709   6.97200
Si           9.85875   2.56898   4.20690
Si          12.37979   1.56747   5.44513
Si           5.48172   5.04928   4.01587
Si           6.24694   5.08058   6.97200
Si           8.25319   2.59245   6.97200
Si           5.44833   0.00000   4.04237
O           11.44483  23.68155   4.42861
O            9.18536  23.52767   5.66684
O            9.49701  22.10626   3.51528
O            9.26328  24.76130   3.38839
O            5.37598  21.09953   8.32038
O            5.09216  19.56075   3.48600
Si           9.85875  23.51202   4.20690
Si          12.37979  24.51353   5.44513
Si           5.48172  21.03172   4.01587
O           16.38117   2.39945   4.42861
O           18.64064   2.55333   5.66684
O           18.32899   3.97474   3.51528
O           18.56272   1.31970   3.38839
O           22.45002   4.98147   8.32038
O           22.73384   6.52025   3.48600
Si          17.96725   2.56898   4.20690
Si          15.44621   1.56747   5.44513
Si          22.34428   5.04928   4.01587
O           11.44483   2.39945   9.51539
O            9.18536   2.55333   8.27716
O            9.49701   3.97474  10.42872
O            9.26328   1.31970  10.55561
O            5.37598   4.98147   5.62362
O            5.09216   6.52025  10.45800
Si           9.85875   2.56898   9.73710
Si          12.37979   1.56747   8.49887
Si           5.48172   5.04928   9.92813
O           16.38117  23.68155   9.51539
O           18.64064  23.52767   8.27716
O           18.32899  22.10626  10.42872
O           18.56272  24.76130  10.55561
O           22.45002  21.09953   5.62362
O           22.73384  19.56075  10.45800
Si          17.96725  23.51202   9.73710
Si          15.44621  24.51353   8.49887
Si          22.34428  21.03172   9.92813
O           16.38117  15.43995   2.54339
O           18.64064  15.59383   1.30516
O           18.32899  17.01524   3.45672
O           18.56272  14.36020   3.58361
O           22.39158  13.04050   1.31910
O           15.59091  13.04050   1.86431
O           15.88308  14.87399   0.00000
O           13.91300  15.05656   1.72766
O           22.45002  18.02197  12.59562
O           20.43820  16.98656   0.00000
O           20.55228  14.35759   0.00000
Si          17.96725  15.60948   2.76510
Si          15.44621  14.60797   1.52687
Si          22.34428  18.08978   2.95613
Si          21.57906  18.12108   0.00000
Si          19.57281  15.63295   0.00000
Si          22.37767  13.04050   2.92963
Si          21.47054  13.04050   0.00000
O           11.44483  10.64105   2.54339
O            9.18536  10.48717   1.30516
O            9.49701   9.06576   3.45672
O            9.26328  11.72080   3.58361
O            5.43442  13.04050   1.31910
O           12.23509  13.04050   1.86431
O           11.94292  11.20701   0.00000
O           13.91300  11.02444   1.72766
O            5.37598   8.05903  12.59562
O            7.38780   9.09444   0.00000
O            7.27372  11.72341   0.00000
Si           9.85875  10.47152   2.76510
Si          12.37979  11.47303   1.52687
Si           5.48172   7.99122   2.95613
Si           6.24694   7.95992   0.00000
Si           8.25319  10.44805   0.00000
Si           5.44833  13.04050   2.92963
Si           6.35546  13.04050   0.00000
O           16.38117  10.64105  11.40061
O           18.64064  10.48717  12.63884
O           18.32899   9.06576  10.48728
O           18.56272  11.72080  10.36039
O           22.39158  13.04050  12.62490
O           15.59091  13.04050  12.07969
O           15.88308  11.20701   0.00000
O           13.91300  11.02444  12.21634
O           22.45002   8.05903   1.34838
O           20.43820   9.09444   0.00000
O           20.55228  11.72341   0.00000
Si          17.96725  10.47152  11.17890
Si          15.44621  11.47303  12.41713
Si          22.34428   7.99122  10.98787
Si          21.57906   7.95992   0.00000
Si          19.57281  10.44805   0.00000
Si          22.37767  13.04050  11.01437
O           11.44483  15.43995  11.40061
O            9.18536  15.59383  12.63884
O            9.49701  17.01524  10.48728
O            9.26328  14.36020  10.36039
O            5.43442  13.04050  12.62490
O           12.23509  13.04050  12.07969
O           11.94292  14.87399   0.00000
O           13.91300  15.05656  12.21634
O            5.37598  18.02197   1.34838
O            7.38780  16.98656   0.00000
O            7.27372  14.35759   0.00000
Si           9.85875  15.60948  11.17890
Si          12.37979  14.60797  12.41713
Si           5.48172  18.08978  10.98787
Si           6.24694  18.12108   0.00000
Si           8.25319  15.63295   0.00000
Si           5.44833  13.04050  11.01437
O           11.44483  10.64105  11.40061
O            9.18536  10.48717  12.63884
O            9.49701   9.06576  10.48728
O            9.26328  11.72080  10.36039
O            5.37598   8.05903   1.34838
Si           9.85875  10.47152  11.17890
Si          12.37979  11.47303  12.41713
Si           5.48172   7.99122  10.98787
O           16.38117  15.43995  11.40061
O           18.64064  15.59383  12.63884
O           18.32899  17.01524  10.48728
O           18.56272  14.36020  10.36039
O           22.45002  18.02197   1.34838
Si          17.96725  15.60948  11.17890
Si          15.44621  14.60797  12.41713
Si          22.34428  18.08978  10.98787
O           11.44483  15.43995   2.54339
O            9.18536  15.59383   1.30516
O            9.49701  17.01524   3.45672
O            9.26328  14.36020   3.58361
O            5.37598  18.02197  12.59562
Si           9.85875  15.60948   2.76510
Si          12.37979  14.60797   1.52687
Si           5.48172  18.08978   2.95613
O           16.38117  10.64105   2.54339
O           18.64064  10.48717   1.30516
O           18.32899   9.06576   3.45672
O           18.56272  11.72080   3.58361
O           22.45002   8.05903  12.59562
Si          17.96725  10.47152   2.76510
Si          15.44621  11.47303   1.52687
Si          22.34428   7.99122   2.95613
O            2.46817   2.39945  16.48739
O            4.72764   2.55333  15.24916
O            4.41599   3.97474  17.40072
O            4.64972   1.31970  17.52761
O            6.95650   0.00000  17.43000
O            8.47858   0.00000  15.26310
O            1.67791   0.00000  15.80831
O            1.97008   1.83349  13.94400
O            0.00000   2.01606  15.67166
O            8.53702   4.98147  26.53962
O            6.52520   3.94606  13.94400
O            6.95650   6.52025  13.94400
O            6.95650   4.68154  17.43000
O            8.82084   6.52025  17.43000
O            6.63928   1.31709  13.94400
Si           4.05425   2.56898  16.70910
Si           1.53321   1.56747  15.47087
Si           8.43128   5.04928  16.90013
Si           7.66606   5.08058  13.94400
Si           5.65981   2.59245  13.94400
Si           8.46467   0.00000  16.87363
Si           7.55754   0.00000  13.94400
O           25.35783  23.68155  16.48739
O           23.09836  23.52767  15.24916
O           23.41001  22.10626  17.40072
O           23.17628  24.76130  17.52761
O           20.86950   0.00000  17.43000
O           19.34742   0.00000  15.26310
O           26.14809   0.00000  15.80831
O           25.85592  24.24751  13.94400
O            0.00000  24.06494  15.67166
O           19.28898  21.09953  26.53962
O           21.30080  22.13494  13.94400
O           20.86950  19.56075  13.94400
O           20.86950  21.39946  17.43000
O           19.00516  19.56075  17.43000
O           21.18672  24.76391  13.94400
Si          23.77175  23.51202  16.70910
Si          26.29279  24.51353  15.47087
Si          19.39472  21.03172  16.90013
Si          20.15994  21.00042  13.94400
Si          22.16619  23.48855  13.94400
Si          19.36133   0.00000  16.87363
Si          20.26846   0.00000  13.94400
O            2.46817  23.68155  25.34461
O            4.72764  23.52767  26.58284
O            4.41599  22.10626  24.43128
O            4.64972  24.76130  24.30439
O            6.95650   0.00000  24.40200
O            8.47858   0.00000  26.56890
O            1.67791   0.00000  26.02369
O            1.97008  24.24751  13.94400
O            0.00000  24.06494  26.16034
O            8.53702  21.09953  15.29238
O            6.52520  22.13494  13.94400
O            6.95650  19.56075  13.94400
O            6.95650  21.39946  24.40200
O            8.82084  19.56075  24.40200
O            6.63928  24.76391  13.94400
Si           4.05425  23.51202  25.12290
Si           1.53321  24.51353  26.36113
Si           8.43128  21.03172  24.93187
Si           7.66606  21.00042  13.94400
Si           5.65981  23.48855  13.94400
Si           8.46467   0.00000  24.95837
O           25.35783   2.39945  25.34461
O           23.09836   2.55333  26.58284
O           23.41001   3.97474  24.43128
O           23.17628   1.31970  24.30439
O           20.86950   0.00000  24.40200
O           19.34742   0.00000  26.56890
O           26.14809   0.00000  26.02369
O           25.85592   1.83349  13.94400
O            0.00000   2.01606  26.16034
O           19.28898   4.98147  15.29238
O           21.30080   3.94606  13.94400
O           20.86950   6.52025  13.94400
O           20.86950   4.68154  24.40200
O           19.00516   6.52025  24.40200
O           21.18672   1.31709  13.94400
Si          23.77175   2.56898  25.12290
Si          26.29279   1.56747  26.36113
Si          19.39472   5.04928  24.93187
Si          20.15994   5.08058  13.94400
Si          22.16619   2.59245  13.94400
Si          19.36133   0.00000  24.95837
O           25.35783  23.68155  25.34461
O           23.09836  23.52767  26.58284
O           23.41001  22.10626  24.43128
O           23.17628  24.76130  24.30439
O           19.28898  21.09953  15.29238
O           20.86950  21.39946  24.40200
O           19.00516  19.56075  24.40200
Si          23.77175  23.51202  25.12290
Si          26.29279  24.51353  26.36113
Si          19.39472  21.03172  24.93187
O            2.46817   2.39945  25.34461
O            4.72764   2.55333  26.58284
O            4.41599   3.97474  24.43128
O            4.64972   1.31970  24.30439
O            8.53702   4.98147  15.29238
O            6.95650   4.68154  24.40200
O            8.82084   6.52025  24.40200
Si           4.05425   2.56898  25.12290
Si           1.53321   1.56747  26.36113
Si           8.43128   5.04928  24.93187
O           25.35783   2.39945  16.48739
O           23.09836   2.55333  15.24916
O           23.41001   3.97474  17.40072
O           23.17628   1.31970  17.52761
O           19.28898   4.98147  26.53962
O           20.86950   4.68154  17.43000
O           19.00516   6.52025  17.43000
Si          23.77175   2.56898  16.70910
Si          26.29279   1.56747  15.47087
Si          19.39472   5.04928  16.90013
O            2.46817  23.68155  16.48739
O            4.72764  23.52767  15.24916
O            4.41599  22.10626  17.40072
O            4.64972  24.76130  17.52761
O            8.53702  21.09953  26.53962
O            6.95650  21.39946  17.43000
O            8.82084  19.56075  17.43000
Si           4.05425  23.51202  16.70910
Si           1.53321  24.51353  15.47087
Si           8.43128  21.03172  16.90013
O            2.46817  15.43995  23.45939
O            4.72764  15.59383  22.22116
O            4.41599  17.01524  24.37272
O            4.64972  14.36020  24.49961
O            6.95650  13.04050  24.40200
O            8.47858  13.04050  22.23510
O            1.67791  13.04050  22.78031
O            1.97008  14.87399  20.91600
O            0.00000  15.05656  22.64366
O            8.53702  18.02197  19.56762
O            6.52520  16.98656  20.91600
O            6.95650  19.56075  20.91600
O            6.95650  17.72204  24.40200
O            6.63928  14.35759  20.91600
Si           4.05425  15.60948  23.68110
Si           1.53321  14.60797  22.44287
Si           8.43128  18.08978  23.87213
Si           7.66606  18.12108  20.91600
Si           5.65981  15.63295  20.91600
Si           8.46467  13.04050  23.84563
Si           7.55754  13.04050  20.91600
O           25.35783  10.64105  23.45939
O           23.09836  10.48717  22.22116
O           23.41001   9.06576  24.37272
O           23.17628  11.72080  24.49961
O           20.86950  13.04050  24.40200
O           19.34742  13.04050  22.23510
O           26.14809  13.04050  22.78031
O           25.85592  11.20701  20.91600
O            0.00000  11.02444  22.64366
O           19.28898   8.05903  19.56762
O           21.30080   9.09444  20.91600
O           20.86950   6.52025  20.91600
O           20.86950   8.35896  24.40200
O           21.18672  11.72341  20.91600
Si          23.77175  10.47152  23.68110
Si          26.29279  11.47303  22.44287
Si          19.39472   7.99122  23.87213
Si          20.15994   7.95992  20.91600
Si          22.16619  10.44805  20.91600
Si          19.36133  13.04050  23.84563
Si          20.26846  13.04050  20.91600
O            2.46817  10.64105  18.37261
O            4.72764  10.48717  19.61084
O            4.41599   9.06576  17.45928
O            4.64972  11.72080  17.33239
O            6.95650  13.04050  17.43000
O            8.47858  13.04050  19.59690
O            1.67791  13.04050  19.05169
O            1.97008  11.20701  20.91600
O            0.00000  11.02444  19.18834
O            8.53702   8.05903  22.26438
O            6.52520   9.09444  20.91600
O            6.95650   6.52025  20.91600
O            6.95650   8.35896  17.43000
O            6.63928  11.72341  20.91600
Si           4.05425  10.47152  18.15090
Si           1.53321  11.47303  19.38913
Si           8.43128   7.99122  17.95987
Si           7.66606   7.95992  20.91600
Si           5.65981  10.44805  20.91600
Si           8.46467  13.04050  17.98637
O           25.35783  15.43995  18.37261
O           23.09836  15.59383  19.61084
O           23.41001  17.01524  17.45928
O           23.17628  14.36020  17.33239
O           20.86950  13.04050  17.43000
O           19.34742  13.04050  19.59690
O           26.14809  13.04050  19.05169
O           25.85592  14.87399  20.91600
O            0.00000  15.05656  19.18834
O           19.28898  18.02197  22.26438
O           21.30080  16.98656  20.91600
O           20.86950  19.56075  20.91600
O           20.86950  17.72204  17.43000
O           21.18672  14.35759  20.91600
Si          23.77175  15.60948  18.15090
Si          26.29279  14.60797  19.38913
Si          19.39472  18.08978  17.95987
Si          20.15994  18.12108  20.91600
Si          22.16619  15.63295  20.91600
Si          19.36133  13.04050  17.98637
O           25.35783  10.64105  18.37261
O           23.09836  10.48717  19.61084
O           23.41001   9.06576  17.45928
O           23.17628  11.72080  17.33239
O           19.28898   8.05903  22.26438
O           20.86950   8.35896  17.43000
Si          23.77175  10.47152  18.15090
Si          26.29279  11.47303  19.38913
Si          19.39472   7.99122  17.95987
O            2.46817  15.43995  18.37261
O            4.72764  15.59383  19.61084
O            4.41599  17.01524  17.45928
O            4.64972  14.36020  17.33239
O            8.53702  18.02197  22.26438
O            6.95650  17.72204  17.43000
Si           4.05425  15.60948  18.15090
Si           1.53321  14.60797  19.38913
Si           8.43128  18.08978  17.95987
O           25.35783  15.43995  23.45939
O           23.09836  15.59383  22.22116
O           23.41001  17.01524  24.37272
O           23.17628  14.36020  24.49961
O           19.28898  18.02197  19.56762
O           20.86950  17.72204  24.40200
Si          23.77175  15.60948  23.68110
Si          26.29279  14.60797  22.44287
Si          19.39472  18.08978  23.87213
O            2.46817  10.64105  23.45939
O            4.72764  10.48717  22.22116
O            4.41599   9.06576  24.37272
O            4.64972  11.72080  24.49961
O            8.53702   8.05903  19.56762
O            6.95650   8.35896  24.40200
Si           4.05425  10.47152  23.68110
Si           1.53321  11.47303  22.44287
Si           8.43128   7.99122  23.87213
O           16.38117   2.39945  23.45939
O           18.64064   2.55333  22.22116
O           18.32899   3.97474  24.37272
O           18.56272   1.31970  24.49961
O           22.39158   0.00000  22.23510
O           15.59091   0.00000  22.78031
O           15.88308   1.83349  20.91600
O           13.91300   2.01606  22.64366
O           22.45002   4.98147  19.56762
O           20.43820   3.94606  20.91600
O           22.73384   6.52025  24.40200
O           20.55228   1.31709  20.91600
Si          17.96725   2.56898  23.68110
Si          15.44621   1.56747  22.44287
Si          22.34428   5.04928  23.87213
Si          21.57906   5.08058  20.91600
Si          19.57281   2.59245  20.91600
Si          22.37767   0.00000  23.84563
Si          21.47054   0.00000  20.91600
O           11.44483  23.68155  23.45939
O            9.18536  23.52767  22.22116
O            9.49701  22.10626  24.37272
O            9.26328  24.76130  24.49961
O            5.43442   0.00000  22.23510
O           12.23509   0.00000  22.78031
O           11.94292  24.24751  20.91600
O           13.91300  24.06494  22.64366
O            5.37598  21.09953  19.56762
O            7.38780  22.13494  20.91600
O            5.09216  19.56075  24.40200
O            7.27372  24.76391  20.91600
Si           9.85875  23.51202  23.68110
Si          12.37979  24.51353  22.44287
Si           5.48172  21.03172  23.87213
Si           6.24694  21.00042  20.91600
Si           8.25319  23.48855  20.91600
Si           5.44833   0.00000  23.84563
Si           6.35546   0.00000  20.91600
O           16.38117  23.68155  18.37261
O           18.64064  23.52767  19.61084
O           18.32899  22.10626  17.45928
O           18.56272  24.76130  17.33239
O           22.39158   0.00000  19.59690
O           15.59091   0.00000  19.05169
O           15.88308  24.24751  20.91600
O           13.91300  24.06494  19.18834
O           22.45002  21.09953  22.26438
O           20.43820  22.13494  20.91600
O           22.73384  19.56075  17.43000
O           20.55228  24.76391  20.91600
Si          17.96725  23.51202  18.15090
Si          15.44621  24.51353  19.38913
Si          22.34428  21.03172  17.95987
Si          21.57906  21.00042  20.91600
Si          19.57281  23.48855  20.91600
Si          22.37767   0.00000  17.98637
O           11.44483   2.39945  18.37261
O            9.18536   2.55333  19.61084
O            9.49701   3.97474  17.45928
O            9.26328   1.31970  17.33239
O            5.43442   0.00000  19.59690
O           12.23509   0.00000  19.05169
O           11.94292   1.83349  20.91600
O           13.91300   2.01606  19.18834
O            5.37598   4.98147  22.26438
O            7.38780   3.94606  20.91600
O            5.09216   6.52025  17.43000
O            7.27372   1.31709  20.91600
Si           9.85875   2.56898  18.15090
Si          12.37979   1.56747  19.38913
Si           5.48172   5.04928  17.95987
Si           6.24694   5.08058  20.91600
Si           8.25319   2.59245  20.91600
Si           5.44833   0.00000  17.98637
O           11.44483  23.68155  18.37261
O            9.18536  23.52767  19.61084
O            9.49701  22.10626  17.45928
O            9.26328  24.76130  17.33239
O            5.37598  21.09953  22.26438
O            5.09216  19.56075  17.43000
Si           9.85875  23.51202  18.15090
Si          12.37979  24.51353  19.38913
Si           5.48172  21.03172  17.95987
O           16.38117   2.39945  18.37261
O           18.64064   2.55333  19.61084
O           18.32899   3.97474  17.45928
O           18.56272   1.31970  17.33239
O           22.45002   4.98147  22.26438
O           22.73384   6.52025  17.43000
Si          17.96725   2.56898  18.15090
Si          15.44621   1.56747  19.38913
Si          22.34428   5.04928  17.95987
O           11.44483   2.39945  23.45939
O            9.18536   2.55333  22.22116
O            9.49701   3.97474  24.37272
O            9.26328   1.31970  24.49961
O            5.37598   4.98147  19.56762
O            5.09216   6.52025  24.40200
Si           9.85875   2.56898  23.68110
Si          12.37979   1.56747  22.44287
Si           5.48172   5.04928  23.87213
O           16.38117  23.68155  23.45939
O           18.64064  23.52767  22.22116
O           18.32899  22.10626  24.37272
O           18.56272  24.76130  24.49961
O           22.45002  21.09953  19.56762
O           22.73384  19.56075  24.40200
Si          17.96725  23.51202  23.68110
Si          15.44621  24.51353  22.44287
Si          22.34428  21.03172  23.87213
O           16.38117  15.43995  16.48739
O           18.64064  15.59383  15.24916
O           18.32899  17.01524  17.40072
O           18.56272  14.36020  17.52761
O           22.39158  13.04050  15.26310
O           15.59091  13.04050  15.80831
O           15.88308  14.87399  13.94400
O           13.91300  15.05656  15.67166
O           22.45002  18.02197  26.53962
O           20.43820  16.98656  13.94400
O           20.55228  14.35759  13.94400
Si          17.96725  15.60948  16.70910
Si          15.44621  14.60797  15.47087
Si          22.34428  18.08978  16.90013
Si          21.57906  18.12108  13.94400
Si          19.57281  15.63295  13.94400
Si          22.37767  13.04050  16.87363
Si          21.47054  13.04050  13.94400
O           11.44483  10.64105  16.48739
O            9.18536  10.48717  15.24916
O            9.49701   9.06576  17.40072
O            9.26328  11.72080  17.52761
O            5.43442  13.04050  15.26310
O           12.23509  13.04050  15.80831
O           11.94292  11.20701  13.94400
O           13.91300  11.02444  15.67166
O            5.37598   8.05903  26.53962
O            7.38780   9.09444  13.94400
O            7.27372  11.72341  13.94400
Si           9.85875  10.47152  16.70910
Si          12.37979  11.47303  15.47087
Si           5.48172   7.99122  16.90013
Si           6.24694   7.95992  13.94400
Si           8.25319  10.44805  13.94400
Si           5.44833  13.04050  16.87363
Si           6.35546  13.04050  13.94400
O           16.38117  10.64105  25.34461
O           18.64064  10.48717  26.58284
O           18.32899   9.06576  24.43128
O           18.56272  11.72080  24.30439
O           22.39158  13.04050  26.56890
O           15.59091  13.04050  26.02369
O           15.88308  11.20701  13.94400
O           13.91300  11.02444  26.16034
O           22.45002   8.05903  15.29238
O           20.43820   9.09444  13.94400
O           20.55228  11.72341  13.94400
Si          17.96725  10.47152  25.12290
Si          15.44621  11.47303  26.36113
Si          22.34428   7.99122  24.93187
Si          21.57906   7.95992  13.94400
Si          19.57281  10.44805  13.94400
Si          22.37767  13.04050  24.95837
O           11.44483  15.43995  25.34461
O            9.18536  15.59383  26.58284
O            9.49701  17.01524  24.43128
O            9.26328  14.36020  24.30439
O            5.43442  13.04050  26.56890
O           12.23509  13.04050  26.02369
O           11.94292  14.87399  13.94400
O           13.91300  15.05656  26.16034
O            5.37598  18.02197  15.29238
O            7.38780  16.98656  13.94400
O            7.27372  14.35759  13.94400
Si           9.85875  15.60948  25.12290
Si          12.37979  14.60797  26.36113
Si           5.48172  18.08978  24.93187
Si           6.24694  18.12108  13.94400
Si           8.25319  15.63295  13.94400
Si           5.44833  13.04050  24.95837
O           11.44483  10.64105  25.34461
O            9.18536  10.48717  26.58284
O            9.49701   9.06576  24.43128
O            9.26328  11.72080  24.30439
O            5.37598   8.05903  15.29238
Si           9.85875  10.47152  25.12290
Si          12.37979  11.47303  26.36113
Si           5.48172   7.99122  24.93187
O           16.38117  15.43995  25.34461
O           18.64064  15.59383  26.58284
O           18.32899  17.01524  24.43128
O           18.56272  14.36020  24.30439
O           22.45002  18.02197  15.29238
Si          17.96725  15.60948  25.12290
Si          15.44621  14.60797  26.36113
Si          22.34428  18.08978  24.93187
O           11.44483  15.43995  16.48739
O            9.18536  15.59383  15.24916
O            9.49701  17.01524  17.40072
O            9.26328  14.36020  17.52761
O            5.37598  18.02197  26.53962
Si           9.85875  15.60948  16.70910
Si          12.37979  14.60797  15.47087
Si           5.48172  18.08978  16.90013
O           16.38117  10.64105  16.48739
O           18.64064  10.48717  15.24916
O           18.32899   9.06576  17.40072
O           18.56272  11.72080  17.52761
O           22.45002   8.05903  26.53962
Si          17.96725  10.47152  16.70910
Si          15.44621  11.47303  15.47087
Si          22.34428   7.99122  16.90013
